LAMMPS (7 Aug 2019)

# Input written to comply with LAMMPS 2017-08-11 00:00:00

# Atomic Configuration
units           metal
boundary        p p p
box             tilt large
atom_style      charge
read_data       triclinic_8x8x8.lmp
  orthogonal box = (0 0 0) to (83.2296 83.2296 83.2296)
  reading atoms ...
  27648 atoms
group           lithium type 1
8704 atoms in group lithium
group           scandium type 2
2560 atoms in group scandium
group           chloride type 3
16384 atoms in group chloride
variable        T1 equal 300
variable        dt equal 0.001

# Potential Setup
pair_style      buck/coul/long 12.0
pair_coeff      * * 0.0 1.0 0.0
pair_coeff      1 1    360.530000  0.161000   0.000000 # Li Li
pair_coeff      1 3    421.040000  0.344000   0.000000 # Li Cl
pair_coeff      3 3   1227.200000  0.321000  14.530000 # Cl Cl
pair_coeff      2 3  12131.350000  0.250700   0.000000 # Sc Cl

kspace_style    pppm 1e-05

# General Setup
timestep        0.001

# Thermodynamic Information Output
thermo_style    custom step temp epair emol etotal press lx ly lz fmax cpu cpuremain
thermo          1000

# Intial Atom Velocity
velocity        all create 300 798383 dist gaussian rot yes

# Stage 0: npt_equilibriation
restart         0
fix             int all npt aniso 1.0 1.0 1 temp 300 300 $(100*dt)
fix             int all npt aniso 1.0 1.0 1 temp 300 300 0.10000000000000000555
run             50000
PPPM initialization ...
  G vector (1/distance) = 0.264753
  grid = 72 72 72
  stencil order = 5
  estimated absolute RMS force accuracy = 0.000184939
  estimated relative force accuracy = 1.28433e-05
  3d grid and FFT values/proc = 8400 2880
  update every 1 steps, delay 10 steps, check yes
Step Temp E_pair E_mol TotEng Press Lx Ly Lz Fmax CPU CPULeft
0          300   -168073.94            0   -167001.84   -7722.1143      83.2296      83.2296      83.2296    5.7883005            0            0
Averages over the last 26 of 51 rows, steps 25000 to 50000:
Temp E_pair E_mol TotEng Press Lx Ly Lz Fmax
299.699 -193514 0 -192443 1.93991 85.1385 88.599 88.3834 3.08969
Loop time of 261.992 on 160 procs for 50000 steps with 27648 atoms

# Stage 1: nvt_equilibriation
unfix           int
restart         0
fix             int all nvt temp 300 300 $(100*dt)
fix             int all nvt temp 300 300 0.10000000000000000555
run             6000000
PPPM initialization ...
  G vector (1/distance) = 0.264247
  grid = 75 75 75
  stencil order = 5
  estimated absolute RMS force accuracy = 0.000178566
  estimated relative force accuracy = 1.24007e-05
  3d grid and FFT values/proc = 9152 3000
Step Temp E_pair E_mol TotEng Press Lx Ly Lz Fmax CPU CPULeft
50000    299.92395   -193542.77            0   -192470.95    126.39104    85.208246    88.396235    88.368026    3.2679094            0            0
Averages over the last 3001 of 6001 rows, steps 3050000 to 6050000:
Temp E_pair E_mol TotEng Press Lx Ly Lz Fmax
299.966 -193776 0 -192704 -1265.27 85.2082 88.3962 88.368 3.04604
Loop time of 27568.8 on 160 procs for 6000000 steps with 27648 atoms

# Stage 2: main_nvt_simulation
unfix           int
compute         lithiummsd lithium msd com yes
compute         scandiummsd scandium msd com yes
compute         chloridemsd chloride msd com yes
fix             lithiummsdt lithium ave/time 1 1 1000 c_lithiummsd[4] file triclinic_8x8x8_300_li.txt
fix             scandiummymsdt scandium ave/time 1 1 1000 c_scandiummsd[4] file triclinic_8x8x8_300_sc.txt
fix             chloridemymsdt chloride ave/time 1 1 1000 c_chloridemsd[4] file triclinic_8x8x8_300_cl.txt
dump            atom_info all custom 1000 triclinic_8x8x8_300.lammpstrj element x y z q id type vx vy vz
dump_modify     atom_info append yes
dump_modify     atom_info sort id
dump_modify     atom_info element Li Sc Cl
restart         0
fix             int all nvt temp 300 300 $(100*dt)
fix             int all nvt temp 300 300 0.10000000000000000555
run             10000000
PPPM initialization ...
  G vector (1/distance) = 0.264247
  grid = 75 75 75
  stencil order = 5
  estimated absolute RMS force accuracy = 0.000178566
  estimated relative force accuracy = 1.24007e-05
  3d grid and FFT values/proc = 9152 3000
Step Temp E_pair E_mol TotEng Press Lx Ly Lz Fmax CPU CPULeft
6050000    301.40166   -193787.57            0   -192710.47   -1044.7887    85.208246    88.396235    88.368026    2.9739749            0            0
Averages over the last 5001 of 10001 rows, steps 11050000 to 16050000:
Temp E_pair E_mol TotEng Press Lx Ly Lz Fmax
299.969 -193805 0 -192733 -1453.72 85.2082 88.3962 88.368 3.04861
Loop time of 45790 on 160 procs for 10000000 steps with 27648 atoms

# Final Commands
variable        final_energy equal etotal
ERROR on proc 0: Substitution for illegal variable 'final_energy' (../input.cpp:553)
