LAMMPS (7 Aug 2019)

# Input written to comply with LAMMPS 2017-08-11 00:00:00

# Atomic Configuration
units           metal
boundary        p p p
box             tilt large
atom_style      charge
read_data       triclinic_7x7x7.lmp
  orthogonal box = (0 0 0) to (72.8259 72.8259 72.8259)
  reading atoms ...
  18522 atoms
group           lithium type 1
5831 atoms in group lithium
group           scandium type 2
1715 atoms in group scandium
group           chloride type 3
10976 atoms in group chloride
variable        T1 equal 300
variable        dt equal 0.001

# Potential Setup
pair_style      buck/coul/long 12.0
pair_coeff      * * 0.0 1.0 0.0
pair_coeff      1 1    360.530000  0.161000   0.000000 # Li Li
pair_coeff      1 3    421.040000  0.344000   0.000000 # Li Cl
pair_coeff      3 3   1227.200000  0.321000  14.530000 # Cl Cl
pair_coeff      2 3  12131.350000  0.250700   0.000000 # Sc Cl

kspace_style    pppm 1e-05

# General Setup
timestep        0.001

# Thermodynamic Information Output
thermo_style    custom step temp epair emol etotal press lx ly lz fmax cpu cpuremain
thermo          1000

# Intial Atom Velocity
velocity        all create 300 152245 dist gaussian rot yes

# Stage 0: npt_equilibriation
restart         0
fix             int all npt aniso 1.0 1.0 1 temp 300 300 $(100*dt)
fix             int all npt aniso 1.0 1.0 1 temp 300 300 0.10000000000000000555
run             50000
PPPM initialization ...
  G vector (1/distance) = 0.265592
  grid = 64 64 64
  stencil order = 5
  estimated absolute RMS force accuracy = 0.000172762
  estimated relative force accuracy = 1.19976e-05
  3d grid and FFT values/proc = 6900 1792
  update every 1 steps, delay 10 steps, check yes
Step Temp E_pair E_mol TotEng Press Lx Ly Lz Fmax CPU CPULeft
0          300   -112596.25            0   -111878.04   -7718.6821      72.8259      72.8259      72.8259    5.7883151            0            0
Averages over the last 26 of 51 rows, steps 25000 to 50000:
Temp E_pair E_mol TotEng Press Lx Ly Lz Fmax
299.982 -129648 0 -128930 11.6133 73.9049 77.8806 77.8953 3.02834
Loop time of 214.328 on 160 procs for 50000 steps with 18522 atoms

# Stage 1: nvt_equilibriation
unfix           int
restart         0
fix             int all nvt temp 300 300 $(100*dt)
fix             int all nvt temp 300 300 0.10000000000000000555
run             6000000
PPPM initialization ...
  G vector (1/distance) = 0.266447
  grid = 64 72 72
  stencil order = 5
  estimated absolute RMS force accuracy = 0.000147757
  estimated relative force accuracy = 1.02612e-05
  3d grid and FFT values/proc = 8096 2560
Step Temp E_pair E_mol TotEng Press Lx Ly Lz Fmax CPU CPULeft
50000    301.22937   -129669.39            0   -128948.24    151.14703    73.848122    77.853443    77.773037     2.983379            0            0
Averages over the last 3001 of 6001 rows, steps 3050000 to 6050000:
Temp E_pair E_mol TotEng Press Lx Ly Lz Fmax
299.999 -129811 0 -129092 -1471.27 73.8481 77.8534 77.773 2.96335
Loop time of 22870 on 160 procs for 6000000 steps with 18522 atoms

# Stage 2: main_nvt_simulation
unfix           int
compute         lithiummsd lithium msd com yes
compute         scandiummsd scandium msd com yes
compute         chloridemsd chloride msd com yes
fix             lithiummsdt lithium ave/time 1 1 1000 c_lithiummsd[4] file triclinic_7x7x7_300_li.txt
fix             scandiummymsdt scandium ave/time 1 1 1000 c_scandiummsd[4] file triclinic_7x7x7_300_sc.txt
fix             chloridemymsdt chloride ave/time 1 1 1000 c_chloridemsd[4] file triclinic_7x7x7_300_cl.txt
dump            atom_info all custom 1000 triclinic_7x7x7_300.lammpstrj element x y z q id type vx vy vz
dump_modify     atom_info append yes
dump_modify     atom_info sort id
dump_modify     atom_info element Li Sc Cl
restart         0
fix             int all nvt temp 300 300 $(100*dt)
fix             int all nvt temp 300 300 0.10000000000000000555
run             10000000
PPPM initialization ...
  G vector (1/distance) = 0.266447
  grid = 64 72 72
  stencil order = 5
  estimated absolute RMS force accuracy = 0.000147757
  estimated relative force accuracy = 1.02612e-05
  3d grid and FFT values/proc = 8096 2560
Step Temp E_pair E_mol TotEng Press Lx Ly Lz Fmax CPU CPULeft
6050000    300.07926    -129810.5            0    -129092.1   -1674.2966    73.848122    77.853443    77.773037    3.1578418            0            0
Averages over the last 5001 of 10001 rows, steps 11050000 to 16050000:
Temp E_pair E_mol TotEng Press Lx Ly Lz Fmax
299.99 -129835 0 -129117 -1611.32 73.8481 77.8534 77.773 2.95793
Loop time of 37874.1 on 160 procs for 10000000 steps with 18522 atoms

# Final Commands
variable        final_energy equal etotal
ERROR on proc 0: Substitution for illegal variable 'final_energy' (../input.cpp:553)
