LAMMPS (7 Aug 2019)
# Input written to comply with LAMMPS 2017-08-11 00:00:00

# Atomic Configuration
units           metal
boundary        p p p
box tilt large
atom_style      charge
read_data       super.lmp
  triclinic box = (0 0 0) to (30.8409 30.9399 30.8613) with tilt (-0.0317434 -0.0977723 -0.0884718)
  reading atoms ...
  1458 atoms
group           lithium type 1
459 atoms in group lithium
group           scandium type 2
135 atoms in group scandium
group           chloride type 3
864 atoms in group chloride
variable        T1 equal 300

# Potential Setup
pair_style  buck/coul/long 12.0
pair_coeff * * 0.0 1.0 0.0
pair_coeff 1 1     360.530000  0.161000   0.000000 # Li Li
pair_coeff 1 3     421.040000  0.344000   0.000000 # Li Cl
pair_coeff 3 3    1227.200000  0.321000  14.530000 # Cl Cl
pair_coeff 2 3   12131.350000  0.250700   0.000000 # Sc Cl

kspace_style pppm 1e-05

# General Setup
timestep        0.001

# Thermodynamic Information Output
thermo_style custom step temp epair emol etotal press lx ly lz fmax cpu cpuremain
thermo          1000

# Intial Atom Velocity
velocity all create 300 80800 dist gaussian rot yes

# Stage 0: npt_equilibriation
restart         0
fix             int all npt aniso 1.0 1.0 0.1 temp 300 300 0.5
run             50000
PPPM initialization ...
  G vector (1/distance) = 0.271552
  grid = 30 30 30
  stencil order = 5
  estimated absolute RMS force accuracy = 0.000111037
  estimated relative force accuracy = 7.71111e-06
  3d grid and FFT values/proc = 2548 384
  update every 1 steps, delay 10 steps, check yes
Step Temp E_pair E_mol TotEng Press Lx Ly Lz Fmax CPU CPULeft
0          300   -9859.8291            0   -9803.3294   -715.17441    30.840886    30.939923    30.861307    2.7005434            0            0
Averages over the last 26 of 51 rows, steps 25000 to 50000:
Temp E_pair E_mol TotEng Press Lx Ly Lz Fmax
299.934 -10194.8 0 -10138.3 -128.042 32.6909 33.8057 33.5486 2.54662
Loop time of 72.0607 on 80 procs for 50000 steps with 1458 atoms

# Stage 1: nvt_equilibriation
unfix int
restart         0
fix             int all nvt temp 300 300 0.5
run             50000
PPPM initialization ...
  G vector (1/distance) = 0.266715
  grid = 30 30 30
  stencil order = 5
  estimated absolute RMS force accuracy = 0.000140524
  estimated relative force accuracy = 9.75886e-06
  3d grid and FFT values/proc = 2548 384
Step Temp E_pair E_mol TotEng Press Lx Ly Lz Fmax CPU CPULeft
50000    294.77859   -10199.861            0   -10144.344    376.26028    32.696226    33.589734     33.45262    2.5786827            0            0
Averages over the last 26 of 51 rows, steps 75000 to 100000:
Temp E_pair E_mol TotEng Press Lx Ly Lz Fmax
299.195 -10203.1 0 -10146.7 -926.994 32.6962 33.5897 33.4526 2.36821
Loop time of 64.0991 on 80 procs for 50000 steps with 1458 atoms

# Stage 2: main_nvt_simulation
unfix int
compute         lithiummsd lithium msd com yes
compute         scandiummsd scandium msd com yes
compute         chloridemsd chloride msd com yes
fix             lithiummsdt lithium ave/time 1 1 1000 c_lithiummsd[4] file super_al_msd_li.txt
fix             scandiummymsdt scandium ave/time 1 1 1000 c_scandiummsd[4] file super_al_msd_sc.txt
fix             chloridemymsdt chloride ave/time 1 1 1000 c_chloridemsd[4] file super_al_msd_cl.txt
dump            atom_info all custom 1000 super_al.lammpstrj element x y z q id type vx vy vz
dump_modify     atom_info append yes
dump_modify     atom_info sort id
dump_modify     atom_info element Li Sc Cl
restart         0
fix             int all nvt temp 300 300 0.5
run             2000000
PPPM initialization ...
  G vector (1/distance) = 0.266715
  grid = 30 30 30
  stencil order = 5
  estimated absolute RMS force accuracy = 0.000140524
  estimated relative force accuracy = 9.75886e-06
  3d grid and FFT values/proc = 2548 384
Step Temp E_pair E_mol TotEng Press Lx Ly Lz Fmax CPU CPULeft
100000    302.03239   -10204.018            0   -10147.136   -1203.5936    32.696226    33.589734     33.45262    2.2296388            0            0
Averages over the last 1001 of 2001 rows, steps 1100000 to 2100000:
Temp E_pair E_mol TotEng Press Lx Ly Lz Fmax
300.026 -10215.4 0 -10158.9 -1578.93 32.6962 33.5897 33.4526 2.43178
Loop time of 2534.34 on 80 procs for 2000000 steps with 1458 atoms

# Final Commands
variable final_energy equal etotal
final_energy: -10159.2319225207
print "END_OF_COMP"
END_OF_COMP
