
#======================================================================
# CRYSTAL DATA
#----------------------------------------------------------------------
data_VESTA_phase_1

_chemical_name_common                  'Na2 Li2 Mg4 Be4 Nb12 O8'
_cell_length_a                         8.145800
_cell_length_b                         8.145800
_cell_length_c                         8.145800
_cell_angle_alpha                      90.000000
_cell_angle_beta                       90.000000
_cell_angle_gamma                      90.000000
_cell_volume                           540.506810
_space_group_name_H-M_alt              'P 1'
_space_group_IT_number                 1

loop_
_space_group_symop_operation_xyz
   'x, y, z'

loop_
   _atom_site_label
   _atom_site_occupancy
   _atom_site_fract_x
   _atom_site_fract_y
   _atom_site_fract_z
   _atom_site_adp_type
   _atom_site_U_iso_or_equiv
   _atom_site_type_symbol
   Nb1        1.0     -0.000000     0.750000     0.750000    Uiso  ? Nb
   Nb2        1.0     0.500000     0.250000     0.750000    Uiso  ? Nb
   Nb3        1.0     0.500000     0.750000     0.250000    Uiso  ? Nb
   Nb4        1.0     -0.000000     0.250000     0.250000    Uiso  ? Nb
   Nb5        1.0     0.750000     -0.000000     0.750000    Uiso  ? Nb
   Nb6        1.0     0.250000     0.500000     0.750000    Uiso  ? Nb
   Nb7        1.0     0.250000     -0.000000     0.250000    Uiso  ? Nb
   Nb8        1.0     0.750000     0.500000     0.250000    Uiso  ? Nb
   Nb9        1.0     0.750000     0.750000     0.500000    Uiso  ? Nb
   Nb10       1.0     0.250000     0.250000     0.500000    Uiso  ? Nb
   Nb11       1.0     0.250000     0.750000     0.000000    Uiso  ? Nb
   Nb12       1.0     0.750000     0.250000     0.000000    Uiso  ? Nb
   Nb13       1.0     0.750000     0.750000     0.000000    Uiso  ? Nb
   Nb14       1.0     0.250000     0.250000     0.000000    Uiso  ? Nb
   Nb15       1.0     0.250000     0.750000     0.500000    Uiso  ? Nb
   Nb16       1.0     0.750000     0.250000     0.500000    Uiso  ? Nb
   Nb17       1.0     0.750000     0.500000     0.750000    Uiso  ? Nb
   Nb18       1.0     0.250000     -0.000000     0.750000    Uiso  ? Nb
   Nb19       1.0     0.250000     0.500000     0.250000    Uiso  ? Nb
   Nb20       1.0     0.750000     -0.000000     0.250000    Uiso  ? Nb
   Nb21       1.0     0.500000     0.750000     0.750000    Uiso  ? Nb
   Nb22       1.0     -0.000000     0.250000     0.750000    Uiso  ? Nb
   Nb23       1.0     -0.000000     0.750000     0.250000    Uiso  ? Nb
   Nb24       1.0     0.500000     0.250000     0.250000    Uiso  ? Nb
   Nb25       1.0     0.750000     0.500000     0.500000    Uiso  ? Nb
   Nb26       1.0     0.250000     -0.000000     0.500000    Uiso  ? Nb
   Nb27       1.0     0.250000     0.500000     0.000000    Uiso  ? Nb
   Nb28       1.0     0.750000     0.000000     0.000000    Uiso  ? Nb
   Nb29       1.0     0.500000     0.750000     0.500000    Uiso  ? Nb
   Nb30       1.0     -0.000000     0.250000     0.500000    Uiso  ? Nb
   Nb31       1.0     -0.000000     0.750000     0.000000    Uiso  ? Nb
   Nb32       1.0     0.500000     0.250000     0.000000    Uiso  ? Nb
   Nb33       1.0     0.500000     0.500000     0.250000    Uiso  ? Nb
   Nb34       1.0     -0.000000     -0.000000     0.250000    Uiso  ? Nb
   Nb35       1.0     -0.000000     0.500000     0.750000    Uiso  ? Nb
   Nb36       1.0     0.500000     -0.000000     0.750000    Uiso  ? Nb
   Nb37       1.0     0.500000     0.500000     0.750000    Uiso  ? Nb
   Nb38       1.0     -0.000000     -0.000000     0.750000    Uiso  ? Nb
   Nb39       1.0     -0.000000     0.500000     0.250000    Uiso  ? Nb
   Nb40       1.0     0.500000     -0.000000     0.250000    Uiso  ? Nb
   Nb41       1.0     0.500000     0.250000     0.500000    Uiso  ? Nb
   Nb42       1.0     -0.000000     0.750000     0.500000    Uiso  ? Nb
   Nb43       1.0     -0.000000     0.250000     0.000000    Uiso  ? Nb
   Nb44       1.0     0.500000     0.750000     0.000000    Uiso  ? Nb
   Nb45       1.0     0.250000     0.500000     0.500000    Uiso  ? Nb
   Nb46       1.0     0.750000     -0.000000     0.500000    Uiso  ? Nb
   Nb47       1.0     0.750000     0.500000     0.000000    Uiso  ? Nb
   Nb48       1.0     0.250000     0.000000     0.000000    Uiso  ? Nb
   Na1        1.0     0.500000     0.500000     0.500000    Uiso  ? Na
   Na2        1.0     -0.000000     -0.000000     0.500000    Uiso  ? Na
   Na3        1.0     -0.000000     0.500000     0.000000    Uiso  ? Na
   Na4        1.0     0.500000     0.000000     0.000000    Uiso  ? Na
   Na5        1.0     0.750000     0.750000     0.750000    Uiso  ? Na
   Na6        1.0     0.250000     0.250000     0.750000    Uiso  ? Na
   Na7        1.0     0.250000     0.750000     0.250000    Uiso  ? Na
   Na8        1.0     0.750000     0.250000     0.250000    Uiso  ? Na
   Be1        1.0     0.375000     0.375000     0.125000    Uiso  ? Be
   Be2        1.0     0.875000     0.875000     0.125000    Uiso  ? Be
   Be3        1.0     0.875000     0.375000     0.625000    Uiso  ? Be
   Be4        1.0     0.375000     0.875000     0.625000    Uiso  ? Be
   Be5        1.0     0.375000     0.125000     0.375000    Uiso  ? Be
   Be6        1.0     0.875000     0.625000     0.375000    Uiso  ? Be
   Be7        1.0     0.875000     0.125000     0.875000    Uiso  ? Be
   Be8        1.0     0.375000     0.625000     0.875000    Uiso  ? Be
   Be9        1.0     0.125000     0.375000     0.375000    Uiso  ? Be
   Be10       1.0     0.625000     0.875000     0.375000    Uiso  ? Be
   Be11       1.0     0.625000     0.375000     0.875000    Uiso  ? Be
   Be12       1.0     0.125000     0.875000     0.875000    Uiso  ? Be
   Be13       1.0     0.125000     0.125000     0.125000    Uiso  ? Be
   Be14       1.0     0.625000     0.625000     0.125000    Uiso  ? Be
   Be15       1.0     0.625000     0.125000     0.625000    Uiso  ? Be
   Be16       1.0     0.125000     0.625000     0.625000    Uiso  ? Be
   Li1        1.0     0.000000     0.000000     0.000000    Uiso  ? Li
   Li2        1.0     0.500000     0.500000     0.000000    Uiso  ? Li
   Li3        1.0     0.500000     -0.000000     0.500000    Uiso  ? Li
   Li4        1.0     -0.000000     0.500000     0.500000    Uiso  ? Li
   Li5        1.0     0.250000     0.250000     0.250000    Uiso  ? Li
   Li6        1.0     0.750000     0.750000     0.250000    Uiso  ? Li
   Li7        1.0     0.750000     0.250000     0.750000    Uiso  ? Li
   Li8        1.0     0.250000     0.750000     0.750000    Uiso  ? Li
   Mg1        1.0     0.625000     0.625000     0.625000    Uiso  ? Mg
   Mg2        1.0     0.125000     0.125000     0.625000    Uiso  ? Mg
   Mg3        1.0     0.125000     0.625000     0.125000    Uiso  ? Mg
   Mg4        1.0     0.625000     0.125000     0.125000    Uiso  ? Mg
   Mg5        1.0     0.625000     0.375000     0.375000    Uiso  ? Mg
   Mg6        1.0     0.125000     0.875000     0.375000    Uiso  ? Mg
   Mg7        1.0     0.125000     0.375000     0.875000    Uiso  ? Mg
   Mg8        1.0     0.625000     0.875000     0.875000    Uiso  ? Mg
   Mg9        1.0     0.375000     0.625000     0.375000    Uiso  ? Mg
   Mg10       1.0     0.875000     0.125000     0.375000    Uiso  ? Mg
   Mg11       1.0     0.875000     0.625000     0.875000    Uiso  ? Mg
   Mg12       1.0     0.375000     0.125000     0.875000    Uiso  ? Mg
   Mg13       1.0     0.375000     0.375000     0.625000    Uiso  ? Mg
   Mg14       1.0     0.875000     0.875000     0.625000    Uiso  ? Mg
   Mg15       1.0     0.875000     0.375000     0.125000    Uiso  ? Mg
   Mg16       1.0     0.375000     0.875000     0.125000    Uiso  ? Mg
   O1         1.0     0.875000     0.875000     0.875000    Uiso  ? O
   O2         1.0     0.375000     0.375000     0.875000    Uiso  ? O
   O3         1.0     0.375000     0.875000     0.375000    Uiso  ? O
   O4         1.0     0.875000     0.375000     0.375000    Uiso  ? O
   O5         1.0     0.875000     0.625000     0.625000    Uiso  ? O
   O6         1.0     0.375000     0.125000     0.625000    Uiso  ? O
   O7         1.0     0.375000     0.625000     0.125000    Uiso  ? O
   O8         1.0     0.875000     0.125000     0.125000    Uiso  ? O
   O9         1.0     0.625000     0.875000     0.625000    Uiso  ? O
   O10        1.0     0.125000     0.375000     0.625000    Uiso  ? O
   O11        1.0     0.125000     0.875000     0.125000    Uiso  ? O
   O12        1.0     0.625000     0.375000     0.125000    Uiso  ? O
   O13        1.0     0.625000     0.625000     0.375000    Uiso  ? O
   O14        1.0     0.125000     0.125000     0.375000    Uiso  ? O
   O15        1.0     0.125000     0.625000     0.875000    Uiso  ? O
   O16        1.0     0.625000     0.125000     0.875000    Uiso  ? O
   O17        1.0     0.625000     0.625000     0.875000    Uiso  ? O
   O18        1.0     0.125000     0.125000     0.875000    Uiso  ? O
   O19        1.0     0.125000     0.625000     0.375000    Uiso  ? O
   O20        1.0     0.625000     0.125000     0.375000    Uiso  ? O
   O21        1.0     0.625000     0.375000     0.625000    Uiso  ? O
   O22        1.0     0.125000     0.875000     0.625000    Uiso  ? O
   O23        1.0     0.125000     0.375000     0.125000    Uiso  ? O
   O24        1.0     0.625000     0.875000     0.125000    Uiso  ? O
   O25        1.0     0.375000     0.625000     0.625000    Uiso  ? O
   O26        1.0     0.875000     0.125000     0.625000    Uiso  ? O
   O27        1.0     0.875000     0.625000     0.125000    Uiso  ? O
   O28        1.0     0.375000     0.125000     0.125000    Uiso  ? O
   O29        1.0     0.375000     0.375000     0.375000    Uiso  ? O
   O30        1.0     0.875000     0.875000     0.375000    Uiso  ? O
   O31        1.0     0.875000     0.375000     0.875000    Uiso  ? O
   O32        1.0     0.375000     0.875000     0.875000    Uiso  ? O
