LAMMPS (7 Aug 2019)

# Input written to comply with LAMMPS 2017-08-11 00:00:00

# Atomic Configuration
units           metal
boundary        p p p
box             tilt large
atom_style      charge
read_data       monoclinic_8x8x8.lmp
  triclinic box = (0 0 0) to (82.2424 82.5065 82.2968) with tilt (-0.0846491 -0.260726 -0.235925)
  reading atoms ...
  27648 atoms
group           lithium type 1
8704 atoms in group lithium
group           scandium type 2
2560 atoms in group scandium
group           chloride type 3
16384 atoms in group chloride
variable        T1 equal 300
variable        dt equal 0.001

# Potential Setup
pair_style      buck/coul/long 12.0
pair_coeff      * * 0.0 1.0 0.0
pair_coeff      1 1    360.530000  0.161000   0.000000 # Li Li
pair_coeff      1 3    421.040000  0.344000   0.000000 # Li Cl
pair_coeff      3 3   1227.200000  0.321000  14.530000 # Cl Cl
pair_coeff      2 3  12131.350000  0.250700   0.000000 # Sc Cl

kspace_style    pppm 1e-05

# General Setup
timestep        0.001

# Thermodynamic Information Output
thermo_style    custom step temp epair emol etotal press lx ly lz fmax cpu cpuremain
thermo          1000

# Intial Atom Velocity
velocity        all create 300 745994 dist gaussian rot yes

# Stage 0: npt_equilibriation
restart         0
fix             int all npt aniso 1.0 1.0 1 temp 300 300 $(100*dt)
fix             int all npt aniso 1.0 1.0 1 temp 300 300 0.10000000000000000555
run             50000
PPPM initialization ...
  G vector (1/distance) = 0.266087
  grid = 72 75 72
  stencil order = 5
  estimated absolute RMS force accuracy = 0.000168694
  estimated relative force accuracy = 1.17151e-05
  3d grid and FFT values/proc = 8925 2880
  update every 1 steps, delay 10 steps, check yes
Step Temp E_pair E_mol TotEng Press Lx Ly Lz Fmax CPU CPULeft
0          300   -186972.57            0   -185900.47   -735.47027    82.242362    82.506461    82.296819     2.700569            0            0
Averages over the last 26 of 51 rows, steps 25000 to 50000:
Temp E_pair E_mol TotEng Press Lx Ly Lz Fmax
299.7 -193523 0 -192452 65.5605 86.0629 90.4121 88.0905 3.2215
Loop time of 264.625 on 160 procs for 50000 steps with 27648 atoms

# Stage 1: nvt_equilibriation
unfix           int
restart         0
fix             int all nvt temp 300 300 $(100*dt)
fix             int all nvt temp 300 300 0.10000000000000000555
run             6000000
PPPM initialization ...
  G vector (1/distance) = 0.265917
  grid = 75 80 80
  stencil order = 5
  estimated absolute RMS force accuracy = 0.000152637
  estimated relative force accuracy = 1.06001e-05
  3d grid and FFT values/proc = 10166 3040
Step Temp E_pair E_mol TotEng Press Lx Ly Lz Fmax CPU CPULeft
50000     301.0412    -193549.8            0   -192473.99   -236.64955     86.03756    90.542145    87.895973    3.1845773            0            0
Averages over the last 3001 of 6001 rows, steps 3050000 to 6050000:
Temp E_pair E_mol TotEng Press Lx Ly Lz Fmax
300.007 -193789 0 -192717 -1397.09 86.0376 90.5421 87.896 3.07975
Loop time of 30545.6 on 160 procs for 6000000 steps with 27648 atoms

# Stage 2: main_nvt_simulation
unfix           int
compute         lithiummsd lithium msd com yes
compute         scandiummsd scandium msd com yes
compute         chloridemsd chloride msd com yes
fix             lithiummsdt lithium ave/time 1 1 1000 c_lithiummsd[4] file monoclinic_8x8x8_300_li.txt
fix             scandiummymsdt scandium ave/time 1 1 1000 c_scandiummsd[4] file monoclinic_8x8x8_300_sc.txt
fix             chloridemymsdt chloride ave/time 1 1 1000 c_chloridemsd[4] file monoclinic_8x8x8_300_cl.txt
dump            atom_info all custom 1000 monoclinic_8x8x8_300.lammpstrj element x y z q id type vx vy vz
dump_modify     atom_info append yes
dump_modify     atom_info sort id
dump_modify     atom_info element Li Sc Cl
restart         0
fix             int all nvt temp 300 300 $(100*dt)
fix             int all nvt temp 300 300 0.10000000000000000555
run             10000000
PPPM initialization ...
  G vector (1/distance) = 0.265917
  grid = 75 80 80
  stencil order = 5
  estimated absolute RMS force accuracy = 0.000152637
  estimated relative force accuracy = 1.06001e-05
  3d grid and FFT values/proc = 10166 3040
Step Temp E_pair E_mol TotEng Press Lx Ly Lz Fmax CPU CPULeft
6050000    300.72079   -193795.42            0   -192720.75   -1448.9693     86.03756    90.542145    87.895973    2.8431454            0            0
Averages over the last 5001 of 10001 rows, steps 11050000 to 16050000:
Temp E_pair E_mol TotEng Press Lx Ly Lz Fmax
299.992 -193820 0 -192748 -1767.45 86.0376 90.5421 87.896 3.06859
Loop time of 50630.1 on 160 procs for 10000000 steps with 27648 atoms

# Final Commands
variable        final_energy equal etotal
ERROR on proc 0: Substitution for illegal variable 'final_energy' (../input.cpp:553)
