
#======================================================================
# CRYSTAL DATA
#----------------------------------------------------------------------
data_VESTA_phase_1

_chemical_name_common                  'Li17 Sc5 Cl32'
_cell_length_a                         20.560591
_cell_length_b                         20.626627
_cell_length_c                         20.574392
_cell_angle_alpha                      90.164062
_cell_angle_beta                       90.181519
_cell_angle_gamma                      90.058784
_cell_volume                           8725.425753
_space_group_name_H-M_alt              'P 1'
_space_group_IT_number                 1

loop_
_space_group_symop_operation_xyz
   'x, y, z'
   'x, y, z+1/2'
   'x, y+1/2, z'
   'x, y+1/2, z+1/2'
   'x+1/2, y, z'
   'x+1/2, y, z+1/2'
   'x+1/2, y+1/2, z'
   'x+1/2, y+1/2, z+1/2'

loop_
   _atom_site_label
   _atom_site_occupancy
   _atom_site_fract_x
   _atom_site_fract_y
   _atom_site_fract_z
   _atom_site_adp_type
   _atom_site_U_iso_or_equiv
   _atom_site_type_symbol
   Li0        1.0     0.186269     0.186142     0.441553    Uiso  ? Li
   Li1        1.0     0.252965     0.375272     0.125684    Uiso  ? Li
   Li2        1.0     0.130312     0.369671     0.258371    Uiso  ? Li
   Li3        1.0     0.375388     0.247470     0.125385    Uiso  ? Li
   Li4        1.0     0.252931     0.007547     0.252907    Uiso  ? Li
   Li5        1.0     0.386198     0.385956     0.002987    Uiso  ? Li
   Li6        1.0     0.252388     0.236335     0.252624    Uiso  ? Li
   Li7        1.0     0.247039     0.375215     0.374746    Uiso  ? Li
   Li8        1.0     0.118942     0.380465     0.491666    Uiso  ? Li
   Li9        1.0     0.130390     0.124990     0.247103    Uiso  ? Li
   Li10       1.0     0.380447     0.129973     0.008257    Uiso  ? Li
   Li11       1.0     0.252991     0.125050     0.130707    Uiso  ? Li
   Li12       1.0     0.998762     0.377738     0.121401    Uiso  ? Li
   Li13       1.0     0.374769     0.375237     0.252268    Uiso  ? Li
   Li14       1.0     0.125223     0.491684     0.375496    Uiso  ? Li
   Li15       1.0     0.379399     0.017361     0.125154    Uiso  ? Li
   Li16       1.0     0.002794     0.258189     0.002770    Uiso  ? Li
   Sc17       1.0     0.124833     0.247308     0.125355    Uiso  ? Sc
   Sc18       1.0     0.375068     0.252831     0.374932    Uiso  ? Sc
   Sc19       1.0     0.002641     0.124966     0.380460    Uiso  ? Sc
   Sc20       1.0     0.247514     0.002723     0.497520    Uiso  ? Sc
   Sc21       1.0     0.497399     0.497391     0.247280    Uiso  ? Sc
   Cl22       1.0     0.129769     0.131280     0.125896    Uiso  ? Cl
   Cl23       1.0     0.372086     0.255074     0.255826    Uiso  ? Cl
   Cl24       1.0     0.249686     0.999704     0.378548    Uiso  ? Cl
   Cl25       1.0     0.001230     0.373489     0.005400    Uiso  ? Cl
   Cl26       1.0     0.130669     0.998434     0.497545    Uiso  ? Cl
   Cl27       1.0     0.372856     0.370892     0.377703    Uiso  ? Cl
   Cl28       1.0     0.246238     0.120902     0.247790    Uiso  ? Cl
   Cl29       1.0     0.005687     0.253449     0.124215    Uiso  ? Cl
   Cl30       1.0     0.251238     0.383175     0.250611    Uiso  ? Cl
   Cl31       1.0     0.377792     0.252949     0.495895    Uiso  ? Cl
   Cl32       1.0     0.999519     0.005105     0.372452    Uiso  ? Cl
   Cl33       1.0     0.000303     0.131323     0.496090    Uiso  ? Cl
   Cl34       1.0     0.248002     0.252380     0.129533    Uiso  ? Cl
   Cl35       1.0     0.119675     0.998612     0.253575    Uiso  ? Cl
   Cl36       1.0     0.131036     0.376041     0.375047    Uiso  ? Cl
   Cl37       1.0     0.254586     0.000237     0.121305    Uiso  ? Cl
   Cl38       1.0     0.371732     0.133088     0.122490    Uiso  ? Cl
   Cl39       1.0     0.496959     0.246703     0.374423    Uiso  ? Cl
   Cl40       1.0     0.129745     0.249498     0.246038    Uiso  ? Cl
   Cl41       1.0     0.369665     0.003510     0.003443    Uiso  ? Cl
   Cl42       1.0     0.125345     0.257152     0.004725    Uiso  ? Cl
   Cl43       1.0     0.497133     0.999858     0.131201    Uiso  ? Cl
   Cl44       1.0     0.255028     0.250378     0.373246    Uiso  ? Cl
   Cl45       1.0     0.378191     0.496842     0.248409    Uiso  ? Cl
   Cl46       1.0     0.002417     0.119754     0.257371    Uiso  ? Cl
   Cl47       1.0     0.253079     0.381925     0.001835    Uiso  ? Cl
   Cl48       1.0     0.254720     0.122334     0.004387    Uiso  ? Cl
   Cl49       1.0     0.000504     0.379740     0.249979    Uiso  ? Cl
   Cl50       1.0     0.380206     0.131474     0.378314    Uiso  ? Cl
   Cl51       1.0     0.128600     0.369222     0.128665    Uiso  ? Cl
   Cl52       1.0     0.374906     0.368421     0.125623    Uiso  ? Cl
   Cl53       1.0     0.121737     0.122538     0.372296    Uiso  ? Cl
