LAMMPS (7 Aug 2019)
# Input written to comply with LAMMPS 2017-08-11 00:00:00

# Atomic Configuration
units           metal
boundary        p p p
box tilt large
atom_style      charge
read_data       4x4x4.lmp
  triclinic box = (0 0 0) to (41.1212 41.2532 41.1484) with tilt (-0.0423245 -0.130363 -0.117962)
  reading atoms ...
  3456 atoms
group           lithium type 1
1088 atoms in group lithium
group           scandium type 2
320 atoms in group scandium
group           chloride type 3
2048 atoms in group chloride
variable        T1 equal 300
variable	dt equal 0.001

# Potential Setup
pair_style  buck/coul/long 12.0
pair_coeff * * 0.0 1.0 0.0
pair_coeff 1 1     360.530000  0.161000   0.000000 # Li Li
pair_coeff 1 3     421.040000  0.344000   0.000000 # Li Cl
pair_coeff 3 3    1227.200000  0.321000  14.530000 # Cl Cl
pair_coeff 2 3   12131.350000  0.250700   0.000000 # Sc Cl

kspace_style pppm 1e-05

# General Setup
timestep        0.001

# Thermodynamic Information Output
thermo_style custom step temp epair emol etotal press lx ly lz fmax cpu cpuremain
thermo          1000

# Intial Atom Velocity
velocity all create 300 80800 dist gaussian rot yes

# Stage 0: npt_equilibriation
restart         0
fix             int all npt aniso 1.0 1.0 0.1 temp 300 300 $(100*dt)
fix             int all npt aniso 1.0 1.0 0.1 temp 300 300 0.10000000000000000555
run             50000
PPPM initialization ...
  G vector (1/distance) = 0.271552
  grid = 40 40 40
  stencil order = 5
  estimated absolute RMS force accuracy = 0.000111037
  estimated relative force accuracy = 7.71111e-06
  3d grid and FFT values/proc = 4335 800
  update every 1 steps, delay 10 steps, check yes
Step Temp E_pair E_mol TotEng Press Lx Ly Lz Fmax CPU CPULeft
0          300   -23371.447            0   -23237.469   -714.35982    41.121181    41.253231     41.14841    2.7005432            0            0
Averages over the last 26 of 51 rows, steps 25000 to 50000:
Temp E_pair E_mol TotEng Press Lx Ly Lz Fmax
300.452 -24170.1 0 -24036 19.8998 44.1072 44.1619 44.5398 2.83919
Loop time of 96.4801 on 80 procs for 50000 steps with 3456 atoms

# Stage 1: nvt_equilibriation
unfix int
restart         0
fix             int all nvt temp 300 300 $(100*dt)
fix             int all nvt temp 300 300 0.10000000000000000555
run             100000
PPPM initialization ...
  G vector (1/distance) = 0.266857
  grid = 40 40 40
  stencil order = 5
  estimated absolute RMS force accuracy = 0.000139351
  estimated relative force accuracy = 9.67739e-06
  3d grid and FFT values/proc = 4335 800
Step Temp E_pair E_mol TotEng Press Lx Ly Lz Fmax CPU CPULeft
50000    302.92199   -24177.504            0   -24042.221    572.92763    44.081089    44.211455     44.32938    2.7318141            0            0
Averages over the last 51 of 101 rows, steps 100000 to 150000:
Temp E_pair E_mol TotEng Press Lx Ly Lz Fmax
299.725 -24186.7 0 -24052.9 -191.943 44.0811 44.2115 44.3294 2.6948
Loop time of 163.116 on 80 procs for 100000 steps with 3456 atoms

# Final Commands
variable final_energy equal etotal
final_energy: -24055.292825959
print "END_OF_COMP"
END_OF_COMP
