LAMMPS (7 Aug 2019)

# Input written to comply with LAMMPS 2017-08-11 00:00:00

# Atomic Configuration
units           metal
boundary        p p p
box             tilt large
atom_style      charge
read_data       triclinic_7x7x7.lmp
  orthogonal box = (0 0 0) to (72.8259 72.8259 72.8259)
  reading atoms ...
  18522 atoms
group           lithium type 1
5831 atoms in group lithium
group           scandium type 2
1715 atoms in group scandium
group           chloride type 3
10976 atoms in group chloride
variable        T1 equal 600
variable        dt equal 0.001

# Potential Setup
pair_style      buck/coul/long 12.0
pair_coeff      * * 0.0 1.0 0.0
pair_coeff      1 1    360.530000  0.161000   0.000000 # Li Li
pair_coeff      1 3    421.040000  0.344000   0.000000 # Li Cl
pair_coeff      3 3   1227.200000  0.321000  14.530000 # Cl Cl
pair_coeff      2 3  12131.350000  0.250700   0.000000 # Sc Cl

kspace_style    pppm 1e-05

# General Setup
timestep        0.001

# Thermodynamic Information Output
thermo_style    custom step temp epair emol etotal press lx ly lz fmax cpu cpuremain
thermo          1000

# Intial Atom Velocity
velocity        all create 600 365481 dist gaussian rot yes

# Stage 0: npt_equilibriation
restart         0
fix             int all npt aniso 1.0 1.0 1 temp 600 600 $(100*dt)
fix             int all npt aniso 1.0 1.0 1 temp 600 600 0.10000000000000000555
run             50000
PPPM initialization ...
  G vector (1/distance) = 0.265592
  grid = 64 64 64
  stencil order = 5
  estimated absolute RMS force accuracy = 0.000172762
  estimated relative force accuracy = 1.19976e-05
  3d grid and FFT values/proc = 6900 1792
  update every 1 steps, delay 10 steps, check yes
Step Temp E_pair E_mol TotEng Press Lx Ly Lz Fmax CPU CPULeft
0          600   -112596.25            0   -111159.83   -5732.5331      72.8259      72.8259      72.8259    5.7883151            0            0
Averages over the last 26 of 51 rows, steps 25000 to 50000:
Temp E_pair E_mol TotEng Press Lx Ly Lz Fmax
599.515 -128800 0 -127365 -6.13784 76.0999 78.4801 76.916 4.30221
Loop time of 209.005 on 160 procs for 50000 steps with 18522 atoms

# Stage 1: nvt_equilibriation
unfix           int
restart         0
fix             int all nvt temp 600 600 $(100*dt)
fix             int all nvt temp 600 600 0.10000000000000000555
run             50000
PPPM initialization ...
  G vector (1/distance) = 0.269143
  grid = 72 72 72
  stencil order = 5
  estimated absolute RMS force accuracy = 0.000121161
  estimated relative force accuracy = 8.41417e-06
  3d grid and FFT values/proc = 8800 2880
Step Temp E_pair E_mol TotEng Press Lx Ly Lz Fmax CPU CPULeft
50000    598.26857    -128844.5            0   -127412.23    189.36451    75.945195    78.678506    76.738942     4.170271            0            0
Averages over the last 26 of 51 rows, steps 75000 to 100000:
Temp E_pair E_mol TotEng Press Lx Ly Lz Fmax
600.731 -128844 0 -127406 -238.118 75.9452 78.6785 76.7389 4.37728
Loop time of 198.738 on 160 procs for 50000 steps with 18522 atoms

# Stage 2: main_nvt_simulation
unfix           int
compute         lithiummsd lithium msd com yes
compute         scandiummsd scandium msd com yes
compute         chloridemsd chloride msd com yes
fix             lithiummsdt lithium ave/time 1 1 1000 c_lithiummsd[4] file triclinic_7x7x7_600_li.txt
fix             scandiummymsdt scandium ave/time 1 1 1000 c_scandiummsd[4] file triclinic_7x7x7_600_sc.txt
fix             chloridemymsdt chloride ave/time 1 1 1000 c_chloridemsd[4] file triclinic_7x7x7_600_cl.txt
dump            atom_info all custom 1000 triclinic_7x7x7_600.lammpstrj element x y z q id type vx vy vz
dump_modify     atom_info append yes
dump_modify     atom_info sort id
dump_modify     atom_info element Li Sc Cl
restart         0
fix             int all nvt temp 600 600 $(100*dt)
fix             int all nvt temp 600 600 0.10000000000000000555
run             16000000
PPPM initialization ...
  G vector (1/distance) = 0.269143
  grid = 72 72 72
  stencil order = 5
  estimated absolute RMS force accuracy = 0.000121161
  estimated relative force accuracy = 8.41417e-06
  3d grid and FFT values/proc = 8800 2880
Step Temp E_pair E_mol TotEng Press Lx Ly Lz Fmax CPU CPULeft
100000    600.27115   -128861.14            0   -127424.08   -350.14301    75.945195    78.678506    76.738942    3.9839975            0            0
Averages over the last 8001 of 16001 rows, steps 8100000 to 16100000:
Temp E_pair E_mol TotEng Press Lx Ly Lz Fmax
600.014 -128891 0 -127455 -253.279 75.9452 78.6785 76.7389 4.34231
Loop time of 62856.7 on 160 procs for 16000000 steps with 18522 atoms

# Final Commands
variable        final_energy equal etotal
ERROR on proc 0: Substitution for illegal variable 'final_energy' (../input.cpp:553)
