
#======================================================================
# CRYSTAL DATA
#----------------------------------------------------------------------
data_VESTA_phase_1

_chemical_name_common                  'Li17 Sc5 Cl32'
_cell_length_a                         11.686542
_cell_length_b                         9.513748
_cell_length_c                         11.221772
_cell_angle_alpha                      90.000000
_cell_angle_beta                       90.000000
_cell_angle_gamma                      90.000000
_cell_volume                           1247.668203
_space_group_name_H-M_alt              'P 1'
_space_group_IT_number                 1

loop_
_space_group_symop_operation_xyz
   'x, y, z'

loop_
   _atom_site_label
   _atom_site_occupancy
   _atom_site_fract_x
   _atom_site_fract_y
   _atom_site_fract_z
   _atom_site_adp_type
   _atom_site_U_iso_or_equiv
   _atom_site_type_symbol
   Li0        1.0     2.683360     4.105750     8.950320    Uiso  ? Li
   Li1        1.0    10.891900     1.680860     5.441460    Uiso  ? Li
   Li2        1.0     9.192750     9.253400     9.013680    Uiso  ? Li
   Li3        1.0     7.422100     4.113810     3.514110    Uiso  ? Li
   Li4        1.0     4.265570     8.422860     5.475990    Uiso  ? Li
   Li5        1.0     2.122260     1.562550     0.167504    Uiso  ? Li
   Li6        1.0     6.344910     2.522050    10.596800    Uiso  ? Li
   Li7        1.0    -0.370163     6.563870     6.886360    Uiso  ? Li
   Li8        1.0     0.273445     7.512880    10.545900    Uiso  ? Li
   Li9        1.0     5.707070     1.863140     6.495450    Uiso  ? Li
   Li10       1.0     8.596810     6.798000     0.353994    Uiso  ? Li
   Li11       1.0     5.387600     1.163610     2.352180    Uiso  ? Li
   Li12       1.0     0.990568     8.540440     3.724450    Uiso  ? Li
   Li13       1.0     8.570140     7.379090     4.666080    Uiso  ? Li
   Li14       1.0     1.405920     9.799270     8.030130    Uiso  ? Li
   Li15       1.0    -0.545266     5.743740     2.755470    Uiso  ? Li
   Li16       1.0     2.435730     2.338140     4.323130    Uiso  ? Li
   Sc17       1.0     3.272070     5.564610     1.959970    Uiso  ? Sc
   Sc18       1.0     6.712230     5.253510     7.798840    Uiso  ? Sc
   Sc19       1.0    10.485700     3.727510     8.986670    Uiso  ? Sc
   Sc20       1.0     4.785240     8.606660     9.745410    Uiso  ? Sc
   Sc21       1.0     9.851510     1.311660     1.903960    Uiso  ? Sc
   Cl22       1.0     3.037070     4.003850     0.169173    Uiso  ? Cl
   Cl23       1.0     6.722370     3.766980     5.872440    Uiso  ? Cl
   Cl24       1.0     4.569560     6.391390     8.264800    Uiso  ? Cl
   Cl25       1.0     9.651660     8.854660     0.275964    Uiso  ? Cl
   Cl26       1.0     3.937800     9.430510     7.531670    Uiso  ? Cl
   Cl27       1.0     9.178810     5.359140     7.559790    Uiso  ? Cl
   Cl28       1.0     4.393410     1.074700     4.286090    Uiso  ? Cl
   Cl29       1.0     1.136120     6.868450     1.658670    Uiso  ? Cl
   Cl30       1.0     6.946810     7.007630     6.275490    Uiso  ? Cl
   Cl31       1.0     8.420790     6.217700     2.655370    Uiso  ? Cl
   Cl32       1.0     9.861490     1.925130     7.635130    Uiso  ? Cl
   Cl33       1.0    10.076200     2.378890    -0.215344    Uiso  ? Cl
   Cl34       1.0     5.273410     4.314230     2.552440    Uiso  ? Cl
   Cl35       1.0     1.201320     0.891711     5.530990    Uiso  ? Cl
   Cl36       1.0    11.258400     8.325840     8.413470    Uiso  ? Cl
   Cl37       1.0     4.398480     7.097370     0.410199    Uiso  ? Cl
   Cl38       1.0     7.497380     1.718510     1.757610    Uiso  ? Cl
   Cl39       1.0    10.457100     5.440270    10.667900    Uiso  ? Cl
   Cl40       1.0     1.858340     4.288730     3.383140    Uiso  ? Cl
   Cl41       1.0     6.788450     9.900050     9.099800    Uiso  ? Cl
   Cl42       1.0     2.380980     8.622520     9.896420    Uiso  ? Cl
   Cl43       1.0     0.602668     0.945387     1.960650    Uiso  ? Cl
   Cl44       1.0     5.121370     3.325120     8.197280    Uiso  ? Cl
   Cl45       1.0     9.911730     3.268510     3.277230    Uiso  ? Cl
   Cl46       1.0     0.601903     4.723360     7.764930    Uiso  ? Cl
   Cl47       1.0     7.172630     7.053000     9.704810    Uiso  ? Cl
   Cl48       1.0     4.618970     0.959893     0.095298    Uiso  ? Cl
   Cl49       1.0    -0.548708     7.051450     4.587710    Uiso  ? Cl
   Cl50       1.0     7.896620     3.858170     9.480810    Uiso  ? Cl
   Cl51       1.0     3.505190     7.223380     3.770910    Uiso  ? Cl
   Cl52       1.0     9.677670     9.749340     3.909710    Uiso  ? Cl
   Cl53       1.0     0.958195     2.253150     9.532360    Uiso  ? Cl
