
#======================================================================
# CRYSTAL DATA
#----------------------------------------------------------------------
data_VESTA_phase_1

_chemical_name_common                  '                                      '
_cell_length_a                         8.497129
_cell_length_b                         10.434411
_cell_length_c                         4.832191
_cell_angle_alpha                      79.704163
_cell_angle_beta                       111.293907
_cell_angle_gamma                      87.979309
_cell_volume                           390.405747
_space_group_name_H-M_alt              'P 1'
_space_group_IT_number                 1

loop_
_space_group_symop_operation_xyz
   'x, y, z'

loop_
   _atom_site_label
   _atom_site_occupancy
   _atom_site_fract_x
   _atom_site_fract_y
   _atom_site_fract_z
   _atom_site_adp_type
   _atom_site_U_iso_or_equiv
   _atom_site_type_symbol
   Cl1        1.0     0.878371    -0.032670     0.218495    Uiso  ? Cl
   Cl2        1.0     0.209672    -0.104881     0.841871    Uiso  ? Cl
   Cl3        1.0     0.263433     0.620391     0.086675    Uiso  ? Cl
   Cl4        1.0     0.703271     0.313239     0.065934    Uiso  ? Cl
   Cl5        1.0     0.416548     0.856983     0.463281    Uiso  ? Cl
   Cl6        1.0     0.662704     0.014297     0.528411    Uiso  ? Cl
   Cl7        1.0     0.801974     0.223777     0.689188    Uiso  ? Cl
   Cl8        1.0     0.198828     0.083002     0.217751    Uiso  ? Cl
   Cl9        1.0     0.094270     0.224543     0.605160    Uiso  ? Cl
   Cl10       1.0     0.269036     0.445428     0.672259    Uiso  ? Cl
   Cl11       1.0     0.134544     0.716526     0.456373    Uiso  ? Cl
   Cl12       1.0     0.594981     0.558476     0.676187    Uiso  ? Cl
   Li1        1.0     0.597441     0.774779     0.108058    Uiso  ? Li
   Li2        1.0     0.469720     0.097690    -0.116885    Uiso  ? Li
   Li3        1.0     0.042156     0.410868     0.047856    Uiso  ? Li
   Li4        1.0    -0.126744     0.734164    -0.198345    Uiso  ? Li
   Li5        1.0     0.426113     0.304841     0.310859    Uiso  ? Li
   Li6        1.0    -0.133086     0.535415     0.393741    Uiso  ? Li
   Sc1        1.0    -0.031177     0.022543    -0.217385    Uiso  ? Sc
   Sc2        1.0     0.527945     0.531588     0.150518    Uiso  ? Sc
