LAMMPS (7 Aug 2019)

# Input written to comply with LAMMPS 2017-08-11 00:00:00

# Atomic Configuration
units           metal
boundary        p p p
box             tilt large
atom_style      charge
read_data       monoclinic_9x9x9.lmp
  triclinic box = (0 0 0) to (92.5227 92.8198 92.5839) with tilt (-0.0952302 -0.293317 -0.265415)
  reading atoms ...
  39366 atoms
group           lithium type 1
12393 atoms in group lithium
group           scandium type 2
3645 atoms in group scandium
group           chloride type 3
23328 atoms in group chloride
variable        T1 equal 400
variable        dt equal 0.001

# Potential Setup
pair_style      buck/coul/long 12.0
pair_coeff      * * 0.0 1.0 0.0
pair_coeff      1 1    360.530000  0.161000   0.000000 # Li Li
pair_coeff      1 3    421.040000  0.344000   0.000000 # Li Cl
pair_coeff      3 3   1227.200000  0.321000  14.530000 # Cl Cl
pair_coeff      2 3  12131.350000  0.250700   0.000000 # Sc Cl

kspace_style    pppm 1e-05

# General Setup
timestep        0.001

# Thermodynamic Information Output
thermo_style    custom step temp epair emol etotal press lx ly lz fmax cpu cpuremain
thermo          1000

# Intial Atom Velocity
velocity        all create 400 226196 dist gaussian rot yes

# Stage 0: npt_equilibriation
restart         0
fix             int all npt aniso 1.0 1.0 1 temp 400 400 $(100*dt)
fix             int all npt aniso 1.0 1.0 1 temp 400 400 0.10000000000000000555
run             50000
PPPM initialization ...
  G vector (1/distance) = 0.265467
  grid = 81 81 81
  stencil order = 5
  estimated absolute RMS force accuracy = 0.000177575
  estimated relative force accuracy = 1.23319e-05
  3d grid and FFT values/proc = 10557 4374
  update every 1 steps, delay 10 steps, check yes
Step Temp E_pair E_mol TotEng Press Lx Ly Lz Fmax CPU CPULeft
0          400   -266217.01            0   -264181.68   -54.837548    92.522657    92.819769    92.583922    2.7005784            0            0
Averages over the last 26 of 51 rows, steps 25000 to 50000:
Temp E_pair E_mol TotEng Press Lx Ly Lz Fmax
400.275 -275108 0 -273071 -26.9093 95.9586 102.932 99.0229 3.66344
Loop time of 336.207 on 160 procs for 50000 steps with 39366 atoms

# Stage 1: nvt_equilibriation
unfix           int
restart         0
fix             int all nvt temp 400 400 $(100*dt)
fix             int all nvt temp 400 400 0.10000000000000000555
run             6000000
PPPM initialization ...
  G vector (1/distance) = 0.266857
  grid = 90 90 90
  stencil order = 5
  estimated absolute RMS force accuracy = 0.000140058
  estimated relative force accuracy = 9.72646e-06
  3d grid and FFT values/proc = 13050 4968
Step Temp E_pair E_mol TotEng Press Lx Ly Lz Fmax CPU CPULeft
50000    398.12857    -275145.6            0   -273119.79   -49.923119    95.702039    103.11501    98.888863    3.7003055            0            0
Averages over the last 3001 of 6001 rows, steps 3050000 to 6050000:
Temp E_pair E_mol TotEng Press Lx Ly Lz Fmax
399.978 -275405 0 -273369 -1886.95 95.702 103.115 98.8889 3.64237
Loop time of 40286.5 on 160 procs for 6000000 steps with 39366 atoms

# Stage 2: main_nvt_simulation
unfix           int
compute         lithiummsd lithium msd com yes
compute         scandiummsd scandium msd com yes
compute         chloridemsd chloride msd com yes
fix             lithiummsdt lithium ave/time 1 1 1000 c_lithiummsd[4] file monoclinic_9x9x9_400_li.txt
fix             scandiummymsdt scandium ave/time 1 1 1000 c_scandiummsd[4] file monoclinic_9x9x9_400_sc.txt
fix             chloridemymsdt chloride ave/time 1 1 1000 c_chloridemsd[4] file monoclinic_9x9x9_400_cl.txt
dump            atom_info all custom 1000 monoclinic_9x9x9_400.lammpstrj element x y z q id type vx vy vz
dump_modify     atom_info append yes
dump_modify     atom_info sort id
dump_modify     atom_info element Li Sc Cl
restart         0
fix             int all nvt temp 400 400 $(100*dt)
fix             int all nvt temp 400 400 0.10000000000000000555
run             10000000
PPPM initialization ...
  G vector (1/distance) = 0.266857
  grid = 90 90 90
  stencil order = 5
  estimated absolute RMS force accuracy = 0.000140058
  estimated relative force accuracy = 9.72646e-06
  3d grid and FFT values/proc = 13050 4968
Step Temp E_pair E_mol TotEng Press Lx Ly Lz Fmax CPU CPULeft
6050000    401.46372   -275413.44            0   -273370.67   -1732.1966    95.702039    103.11501    98.888863    3.2507072            0            0
Averages over the last 5001 of 10001 rows, steps 11050000 to 16050000:
Temp E_pair E_mol TotEng Press Lx Ly Lz Fmax
400.032 -275440 0 -273405 -2041.54 95.702 103.115 98.8889 3.64196
Loop time of 67259 on 160 procs for 10000000 steps with 39366 atoms

# Final Commands
variable        final_energy equal etotal
ERROR on proc 0: Substitution for illegal variable 'final_energy' (../input.cpp:553)
