LAMMPS (7 Aug 2019)

# Input written to comply with LAMMPS 2017-08-11 00:00:00

# Atomic Configuration
units           metal
boundary        p p p
box             tilt large
atom_style      charge
read_data       monoclinic_7x7x7.lmp
  triclinic box = (0 0 0) to (71.9621 72.1932 72.0097) with tilt (-0.0740679 -0.228135 -0.206434)
  reading atoms ...
  18522 atoms
group           lithium type 1
5831 atoms in group lithium
group           scandium type 2
1715 atoms in group scandium
group           chloride type 3
10976 atoms in group chloride
variable        T1 equal 600
variable        dt equal 0.001

# Potential Setup
pair_style      buck/coul/long 12.0
pair_coeff      * * 0.0 1.0 0.0
pair_coeff      1 1    360.530000  0.161000   0.000000 # Li Li
pair_coeff      1 3    421.040000  0.344000   0.000000 # Li Cl
pair_coeff      3 3   1227.200000  0.321000  14.530000 # Cl Cl
pair_coeff      2 3  12131.350000  0.250700   0.000000 # Sc Cl

kspace_style    pppm 1e-05

# General Setup
timestep        0.001

# Thermodynamic Information Output
thermo_style    custom step temp epair emol etotal press lx ly lz fmax cpu cpuremain
thermo          1000

# Intial Atom Velocity
velocity        all create 600 794571 dist gaussian rot yes

# Stage 0: npt_equilibriation
restart         0
fix             int all npt aniso 1.0 1.0 1 temp 600 600 $(100*dt)
fix             int all npt aniso 1.0 1.0 1 temp 600 600 0.10000000000000000555
run             50000
PPPM initialization ...
  G vector (1/distance) = 0.266277
  grid = 64 64 64
  stencil order = 5
  estimated absolute RMS force accuracy = 0.000166011
  estimated relative force accuracy = 1.15288e-05
  3d grid and FFT values/proc = 6900 1792
  update every 1 steps, delay 10 steps, check yes
Step Temp E_pair E_mol TotEng Press Lx Ly Lz Fmax CPU CPULeft
0          600      -125257            0   -123820.59    1316.2692    71.962067    72.193154    72.009717     2.700585            0            0
Averages over the last 26 of 51 rows, steps 25000 to 50000:
Temp E_pair E_mol TotEng Press Lx Ly Lz Fmax
599.647 -128829 0 -127393 10.583 75.6381 80.7745 76.4021 4.40802
Loop time of 206.762 on 160 procs for 50000 steps with 18522 atoms

# Stage 1: nvt_equilibriation
unfix           int
restart         0
fix             int all nvt temp 600 600 $(100*dt)
fix             int all nvt temp 600 600 0.10000000000000000555
run             50000
PPPM initialization ...
  G vector (1/distance) = 0.267736
  grid = 72 72 72
  stencil order = 5
  estimated absolute RMS force accuracy = 0.000127379
  estimated relative force accuracy = 8.84601e-06
  3d grid and FFT values/proc = 8800 2880
Step Temp E_pair E_mol TotEng Press Lx Ly Lz Fmax CPU CPULeft
50000    597.49369   -128832.38            0   -127401.96   -185.72716    75.663461    80.928777    76.236895    4.3951333            0            0
Averages over the last 26 of 51 rows, steps 75000 to 100000:
Temp E_pair E_mol TotEng Press Lx Ly Lz Fmax
599.971 -128839 0 -127403 -552.199 75.6635 80.9288 76.2369 4.34425
Loop time of 207.366 on 160 procs for 50000 steps with 18522 atoms

# Stage 2: main_nvt_simulation
unfix           int
compute         lithiummsd lithium msd com yes
compute         scandiummsd scandium msd com yes
compute         chloridemsd chloride msd com yes
fix             lithiummsdt lithium ave/time 1 1 1000 c_lithiummsd[4] file monoclinic_7x7x7_600_li.txt
fix             scandiummymsdt scandium ave/time 1 1 1000 c_scandiummsd[4] file monoclinic_7x7x7_600_sc.txt
fix             chloridemymsdt chloride ave/time 1 1 1000 c_chloridemsd[4] file monoclinic_7x7x7_600_cl.txt
dump            atom_info all custom 1000 monoclinic_7x7x7_600.lammpstrj element x y z q id type vx vy vz
dump_modify     atom_info append yes
dump_modify     atom_info sort id
dump_modify     atom_info element Li Sc Cl
restart         0
fix             int all nvt temp 600 600 $(100*dt)
fix             int all nvt temp 600 600 0.10000000000000000555
run             16000000
PPPM initialization ...
  G vector (1/distance) = 0.267736
  grid = 72 72 72
  stencil order = 5
  estimated absolute RMS force accuracy = 0.000127379
  estimated relative force accuracy = 8.84601e-06
  3d grid and FFT values/proc = 8800 2880
Step Temp E_pair E_mol TotEng Press Lx Ly Lz Fmax CPU CPULeft
100000    600.50755   -128854.78            0   -127417.15   -391.85939    75.663461    80.928777    76.236895      4.27744            0            0
Averages over the last 8001 of 16001 rows, steps 8100000 to 16100000:
Temp E_pair E_mol TotEng Press Lx Ly Lz Fmax
600.101 -128857 0 -127421 -761.356 75.6635 80.9288 76.2369 4.34271
Loop time of 64816.4 on 160 procs for 16000000 steps with 18522 atoms

# Final Commands
variable        final_energy equal etotal
ERROR on proc 0: Substitution for illegal variable 'final_energy' (../input.cpp:553)
