LAMMPS (7 Aug 2019)

# Input written to comply with LAMMPS 2017-08-11 00:00:00

# Atomic Configuration
units           metal
boundary        p p p
box             tilt large
atom_style      charge
read_data       triclinic_8x8x8.lmp
  orthogonal box = (0 0 0) to (83.2296 83.2296 83.2296)
  reading atoms ...
  27648 atoms
group           lithium type 1
8704 atoms in group lithium
group           scandium type 2
2560 atoms in group scandium
group           chloride type 3
16384 atoms in group chloride
variable        T1 equal 600
variable        dt equal 0.001

# Potential Setup
pair_style      buck/coul/long 12.0
pair_coeff      * * 0.0 1.0 0.0
pair_coeff      1 1    360.530000  0.161000   0.000000 # Li Li
pair_coeff      1 3    421.040000  0.344000   0.000000 # Li Cl
pair_coeff      3 3   1227.200000  0.321000  14.530000 # Cl Cl
pair_coeff      2 3  12131.350000  0.250700   0.000000 # Sc Cl

kspace_style    pppm 1e-05

# General Setup
timestep        0.001

# Thermodynamic Information Output
thermo_style    custom step temp epair emol etotal press lx ly lz fmax cpu cpuremain
thermo          1000

# Intial Atom Velocity
velocity        all create 600 557327 dist gaussian rot yes

# Stage 0: npt_equilibriation
restart         0
fix             int all npt aniso 1.0 1.0 1 temp 600 600 $(100*dt)
fix             int all npt aniso 1.0 1.0 1 temp 600 600 0.10000000000000000555
run             50000
PPPM initialization ...
  G vector (1/distance) = 0.264753
  grid = 72 72 72
  stencil order = 5
  estimated absolute RMS force accuracy = 0.000184939
  estimated relative force accuracy = 1.28433e-05
  3d grid and FFT values/proc = 8400 2880
  update every 1 steps, delay 10 steps, check yes
Step Temp E_pair E_mol TotEng Press Lx Ly Lz Fmax CPU CPULeft
0          600   -168073.94            0   -165929.74   -5735.9298      83.2296      83.2296      83.2296    5.7883005            0            0
Averages over the last 26 of 51 rows, steps 25000 to 50000:
Temp E_pair E_mol TotEng Press Lx Ly Lz Fmax
599.351 -192293 0 -190151 -18.5971 87.7246 88.0709 88.3928 4.3859
Loop time of 267.186 on 160 procs for 50000 steps with 27648 atoms

# Stage 1: nvt_equilibriation
unfix           int
restart         0
fix             int all nvt temp 600 600 $(100*dt)
fix             int all nvt temp 600 600 0.10000000000000000555
run             50000
PPPM initialization ...
  G vector (1/distance) = 0.263874
  grid = 75 75 75
  stencil order = 5
  estimated absolute RMS force accuracy = 0.000181796
  estimated relative force accuracy = 1.2625e-05
  3d grid and FFT values/proc = 9152 3000
Step Temp E_pair E_mol TotEng Press Lx Ly Lz Fmax CPU CPULeft
50000    594.64004   -192298.44            0    -190173.4   -205.85443    87.770595    87.888674    88.284775    4.6922518            0            0
Averages over the last 26 of 51 rows, steps 75000 to 100000:
Temp E_pair E_mol TotEng Press Lx Ly Lz Fmax
600.062 -192336 0 -190192 -222.693 87.7706 87.8887 88.2848 4.31891
Loop time of 233.069 on 160 procs for 50000 steps with 27648 atoms

# Stage 2: main_nvt_simulation
unfix           int
compute         lithiummsd lithium msd com yes
compute         scandiummsd scandium msd com yes
compute         chloridemsd chloride msd com yes
fix             lithiummsdt lithium ave/time 1 1 1000 c_lithiummsd[4] file triclinic_8x8x8_600_li.txt
fix             scandiummymsdt scandium ave/time 1 1 1000 c_scandiummsd[4] file triclinic_8x8x8_600_sc.txt
fix             chloridemymsdt chloride ave/time 1 1 1000 c_chloridemsd[4] file triclinic_8x8x8_600_cl.txt
dump            atom_info all custom 1000 triclinic_8x8x8_600.lammpstrj element x y z q id type vx vy vz
dump_modify     atom_info append yes
dump_modify     atom_info sort id
dump_modify     atom_info element Li Sc Cl
restart         0
fix             int all nvt temp 600 600 $(100*dt)
fix             int all nvt temp 600 600 0.10000000000000000555
run             16000000
PPPM initialization ...
  G vector (1/distance) = 0.263874
  grid = 75 75 75
  stencil order = 5
  estimated absolute RMS force accuracy = 0.000181796
  estimated relative force accuracy = 1.2625e-05
  3d grid and FFT values/proc = 9152 3000
Step Temp E_pair E_mol TotEng Press Lx Ly Lz Fmax CPU CPULeft
100000    602.68435   -192306.78            0      -190153   -303.89956    87.770595    87.888674    88.284775    4.1178922            0            0
Averages over the last 8001 of 16001 rows, steps 8100000 to 16100000:
Temp E_pair E_mol TotEng Press Lx Ly Lz Fmax
599.992 -192414 0 -190269 -97.6718 87.7706 87.8887 88.2848 4.46165
Loop time of 74473.6 on 160 procs for 16000000 steps with 27648 atoms

# Final Commands
variable        final_energy equal etotal
ERROR on proc 0: Substitution for illegal variable 'final_energy' (../input.cpp:553)
