# CIF file generated by supercell program. See https://orex.github.io/supercell
# E_e = 0.0000000000 eV
data_
_chemical_name_common ''
_cell_length_a 6.398
_cell_length_b 11.04
_cell_length_c 6.391
_cell_angle_alpha 90
_cell_angle_beta 109.89
_cell_angle_gamma 90
_space_group_IT_number 1
_space_group_name_H-M_alt 'P 1'
_space_group_name_Hall 'P 1'
loop_
    _space_group_symop_operation_xyz
    x,y,z
loop_
    _atom_site_label
    _atom_site_type_symbol
    _atom_site_fract_x
    _atom_site_fract_y
    _atom_site_fract_z
    _atom_site_occupancy
    Cl1     Cl   0.75790   0.00000   0.23130   1.000
    Cl1     Cl   0.24210   0.00000   0.76870   1.000
    Cl1     Cl   0.25790   0.50000   0.23130   1.000
    Cl1     Cl   0.74210   0.50000   0.76870   1.000
    Cl2     Cl   0.23870   0.83910   0.23710   1.000
    Cl2     Cl   0.76130   0.83910   0.76290   1.000
    Cl2     Cl   0.76130   0.16090   0.76290   1.000
    Cl2     Cl   0.23870   0.16090   0.23710   1.000
    Cl2     Cl   0.73870   0.33910   0.23710   1.000
    Cl2     Cl   0.26130   0.33910   0.76290   1.000
    Cl2     Cl   0.26130   0.66090   0.76290   1.000
    Cl2     Cl   0.73870   0.66090   0.23710   1.000
    Li1     Li   0.50000   0.83470   0.00000   1.000
    Li1     Li   0.50000   0.16530   0.00000   1.000
    Li1     Li   0.00000   0.33470   0.00000   1.000
    Sc2     Sc   0.00000   0.66530   0.00000   1.000
    Sc1     Sc   0.00000   0.00000   0.00000   1.000
    Li2     Li   0.50000   0.50000   0.00000   1.000
