
#======================================================================
# CRYSTAL DATA
#----------------------------------------------------------------------
data_VESTA_phase_1

_chemical_name_common                  'Li17 Sc5 Cl32'
_cell_length_a                         20.807400
_cell_length_b                         20.807400
_cell_length_c                         20.807400
_cell_angle_alpha                      90.000000
_cell_angle_beta                       90.000000
_cell_angle_gamma                      90.000000
_cell_volume                           9008.519700
_space_group_name_H-M_alt              'P 1'
_space_group_IT_number                 1

loop_
_space_group_symop_operation_xyz
   'x, y, z'
   'x, y, z+1/2'
   'x, y+1/2, z'
   'x, y+1/2, z+1/2'
   'x+1/2, y, z'
   'x+1/2, y, z+1/2'
   'x+1/2, y+1/2, z'
   'x+1/2, y+1/2, z+1/2'

loop_
   _atom_site_label
   _atom_site_occupancy
   _atom_site_fract_x
   _atom_site_fract_y
   _atom_site_fract_z
   _atom_site_adp_type
   _atom_site_U_iso_or_equiv
   _atom_site_type_symbol
   Li0        1.0     0.187500     0.187500     0.437500    Uiso  ? Li
   Li1        1.0     0.250000     0.375000     0.125000    Uiso  ? Li
   Li2        1.0     0.125000     0.375000     0.250000    Uiso  ? Li
   Li3        1.0     0.375000     0.250000     0.125000    Uiso  ? Li
   Li4        1.0     0.250000     0.000000     0.250000    Uiso  ? Li
   Li5        1.0     0.437500     0.437500     0.057000    Uiso  ? Li
   Li6        1.0     0.250000     0.250000     0.250000    Uiso  ? Li
   Li7        1.0     0.250000     0.375000     0.375000    Uiso  ? Li
   Li8        1.0     0.125000     0.375000     0.000000    Uiso  ? Li
   Li9        1.0     0.125000     0.125000     0.250000    Uiso  ? Li
   Li10       1.0     0.375000     0.125000     0.000000    Uiso  ? Li
   Li11       1.0     0.250000     0.125000     0.125000    Uiso  ? Li
   Li12       1.0     0.000000     0.375000     0.125000    Uiso  ? Li
   Li13       1.0     0.375000     0.375000     0.250000    Uiso  ? Li
   Li14       1.0     0.125000     0.000000     0.375000    Uiso  ? Li
   Li15       1.0     0.375000     0.000000     0.125000    Uiso  ? Li
   Li16       1.0     0.000000     0.250000     0.000000    Uiso  ? Li
   Sc17       1.0     0.125000     0.250000     0.125000    Uiso  ? Sc
   Sc18       1.0     0.375000     0.250000     0.375000    Uiso  ? Sc
   Sc19       1.0     0.000000     0.125000     0.375000    Uiso  ? Sc
   Sc20       1.0     0.250000     0.000000     0.000000    Uiso  ? Sc
   Sc21       1.0     0.000000     0.000000     0.250000    Uiso  ? Sc
   Cl22       1.0     0.127175     0.127175     0.127175    Uiso  ? Cl
   Cl23       1.0     0.372825     0.252175     0.252175    Uiso  ? Cl
   Cl24       1.0     0.247825     0.497825     0.377175    Uiso  ? Cl
   Cl25       1.0     0.002175     0.372825     0.002175    Uiso  ? Cl
   Cl26       1.0     0.127175     0.497825     0.497825    Uiso  ? Cl
   Cl27       1.0     0.372825     0.372825     0.372825    Uiso  ? Cl
   Cl28       1.0     0.247825     0.127175     0.247825    Uiso  ? Cl
   Cl29       1.0     0.002175     0.252175     0.122825    Uiso  ? Cl
   Cl30       1.0     0.252175     0.372825     0.252175    Uiso  ? Cl
   Cl31       1.0     0.377175     0.247825     0.497825    Uiso  ? Cl
   Cl32       1.0     0.002175     0.002175     0.372825    Uiso  ? Cl
   Cl33       1.0     0.497825     0.127175     0.497825    Uiso  ? Cl
   Cl34       1.0     0.247825     0.247825     0.127175    Uiso  ? Cl
   Cl35       1.0     0.122825     0.002175     0.252175    Uiso  ? Cl
   Cl36       1.0     0.127175     0.377175     0.377175    Uiso  ? Cl
   Cl37       1.0     0.252175     0.002175     0.122825    Uiso  ? Cl
   Cl38       1.0     0.372825     0.122825     0.122825    Uiso  ? Cl
   Cl39       1.0     0.497825     0.247825     0.377175    Uiso  ? Cl
   Cl40       1.0     0.127175     0.247825     0.247825    Uiso  ? Cl
   Cl41       1.0     0.372825     0.002175     0.002175    Uiso  ? Cl
   Cl42       1.0     0.122825     0.252175     0.002175    Uiso  ? Cl
   Cl43       1.0     0.497825     0.497825     0.127175    Uiso  ? Cl
   Cl44       1.0     0.252175     0.252175     0.372825    Uiso  ? Cl
   Cl45       1.0     0.377175     0.497825     0.247825    Uiso  ? Cl
   Cl46       1.0     0.002175     0.122825     0.252175    Uiso  ? Cl
   Cl47       1.0     0.247825     0.377175     0.497825    Uiso  ? Cl
   Cl48       1.0     0.252175     0.122825     0.002175    Uiso  ? Cl
   Cl49       1.0     0.497825     0.377175     0.247825    Uiso  ? Cl
   Cl50       1.0     0.377175     0.127175     0.377175    Uiso  ? Cl
   Cl51       1.0     0.122825     0.372825     0.122825    Uiso  ? Cl
   Cl52       1.0     0.377175     0.377175     0.127175    Uiso  ? Cl
   Cl53       1.0     0.122825     0.122825     0.372825    Uiso  ? Cl
