
#======================================================================
# CRYSTAL DATA
#----------------------------------------------------------------------
data_VESTA_phase_1

_chemical_name_common                  'Li17 Sc5 Cl32'
_cell_length_a                         10.403700
_cell_length_b                         10.403700
_cell_length_c                         10.403700
_cell_angle_alpha                      90.000000
_cell_angle_beta                       90.000000
_cell_angle_gamma                      90.000000
_cell_volume                           1126.064963
_space_group_name_H-M_alt              'P 1'
_space_group_IT_number                 1

loop_
_space_group_symop_operation_xyz
   'x, y, z'

loop_
   _atom_site_label
   _atom_site_occupancy
   _atom_site_fract_x
   _atom_site_fract_y
   _atom_site_fract_z
   _atom_site_adp_type
   _atom_site_U_iso_or_equiv
   _atom_site_type_symbol
   Li1        1.0     0.375000     0.375000     0.875000    Uiso  ? Li
   Li2        1.0     0.250000     0.250000     0.000000    Uiso  ? Li
   Li3        1.0     0.250000     0.500000     0.750000    Uiso  ? Li
   Li4        1.0     0.500000     0.000000     0.500000    Uiso  ? Li
   Li5        1.0     0.500000     0.500000     0.000000    Uiso  ? Li
   Li6        1.0     0.136000     0.875000     0.375000    Uiso  ? Li
   Li7        1.0     0.250000     0.750000     0.000000    Uiso  ? Li
   Li8        1.0     0.250000     0.500000     0.250000    Uiso  ? Li
   Li9        1.0     0.750000     0.500000     0.750000    Uiso  ? Li
   Li10       1.0     0.000000     0.250000     0.750000    Uiso  ? Li
   Li11       1.0     0.250000     0.250000     0.500000    Uiso  ? Li
   Li12       1.0     0.750000     0.250000     0.000000    Uiso  ? Li
   Li13       1.0     0.750000     0.750000     0.500000    Uiso  ? Li
   Li14       1.0     0.250000     0.000000     0.750000    Uiso  ? Li
   Li15       1.0     0.750000     0.000000     0.250000    Uiso  ? Li
   Li16       1.0     0.000000     0.500000     0.000000    Uiso  ? Li
   Li17       1.0     0.000000     0.000000     0.500000    Uiso  ? Li
   Sc1        1.0     0.500000     0.500000     0.500000    Uiso  ? Sc
   Sc2        1.0     0.500000     0.750000     0.750000    Uiso  ? Sc
   Sc3        1.0     0.500000     0.000000     0.000000    Uiso  ? Sc
   Sc4        1.0     0.500000     0.250000     0.250000    Uiso  ? Sc
   Sc5        1.0     0.000000     0.750000     0.250000    Uiso  ? Sc
   Cl1        1.0     0.254350     0.254350     0.254350    Uiso  ? Cl
   Cl2        1.0     0.745650     0.504350     0.504350    Uiso  ? Cl
   Cl3        1.0     0.495650     0.995650     0.754350    Uiso  ? Cl
   Cl4        1.0     0.004350     0.745650     0.004350    Uiso  ? Cl
   Cl5        1.0     0.254350     0.995650     0.995650    Uiso  ? Cl
   Cl6        1.0     0.745650     0.745650     0.745650    Uiso  ? Cl
   Cl7        1.0     0.495650     0.254350     0.495650    Uiso  ? Cl
   Cl8        1.0     0.004350     0.504350     0.245650    Uiso  ? Cl
   Cl9        1.0     0.504350     0.745650     0.504350    Uiso  ? Cl
   Cl10       1.0     0.754350     0.495650     0.995650    Uiso  ? Cl
   Cl11       1.0     0.004350     0.004350     0.745650    Uiso  ? Cl
   Cl12       1.0     0.995650     0.254350     0.995650    Uiso  ? Cl
   Cl13       1.0     0.495650     0.495650     0.254350    Uiso  ? Cl
   Cl14       1.0     0.245650     0.004350     0.504350    Uiso  ? Cl
   Cl15       1.0     0.254350     0.754350     0.754350    Uiso  ? Cl
   Cl16       1.0     0.504350     0.004350     0.245650    Uiso  ? Cl
   Cl17       1.0     0.745650     0.245650     0.245650    Uiso  ? Cl
   Cl18       1.0     0.995650     0.495650     0.754350    Uiso  ? Cl
   Cl19       1.0     0.254350     0.495650     0.495650    Uiso  ? Cl
   Cl20       1.0     0.745650     0.004350     0.004350    Uiso  ? Cl
   Cl21       1.0     0.245650     0.504350     0.004350    Uiso  ? Cl
   Cl22       1.0     0.995650     0.995650     0.254350    Uiso  ? Cl
   Cl23       1.0     0.504350     0.504350     0.745650    Uiso  ? Cl
   Cl24       1.0     0.754350     0.995650     0.495650    Uiso  ? Cl
   Cl25       1.0     0.004350     0.245650     0.504350    Uiso  ? Cl
   Cl26       1.0     0.495650     0.754350     0.995650    Uiso  ? Cl
   Cl27       1.0     0.504350     0.245650     0.004350    Uiso  ? Cl
   Cl28       1.0     0.995650     0.754350     0.495650    Uiso  ? Cl
   Cl29       1.0     0.754350     0.254350     0.754350    Uiso  ? Cl
   Cl30       1.0     0.245650     0.745650     0.245650    Uiso  ? Cl
   Cl31       1.0     0.754350     0.754350     0.254350    Uiso  ? Cl
   Cl32       1.0     0.245650     0.245650     0.745650    Uiso  ? Cl
