LAMMPS (7 Aug 2019)
# Input written to comply with LAMMPS 2017-08-11 00:00:00

# Atomic Configuration
units           metal
boundary        p p p
box tilt large
atom_style      charge
read_data       3x3x3.lmp
  triclinic box = (0 0 0) to (30.8409 30.9399 30.8613) with tilt (-0.0317434 -0.0977723 -0.0884718)
  reading atoms ...
  1458 atoms
group           lithium type 1
459 atoms in group lithium
group           scandium type 2
135 atoms in group scandium
group           chloride type 3
864 atoms in group chloride
variable        T1 equal 300
variable        dt equal 0.001

# Potential Setup
pair_style  buck/coul/long 12.0
pair_coeff * * 0.0 1.0 0.0
pair_coeff 1 1     360.530000  0.161000   0.000000 # Li Li
pair_coeff 1 3     421.040000  0.344000   0.000000 # Li Cl
pair_coeff 3 3    1227.200000  0.321000  14.530000 # Cl Cl
pair_coeff 2 3   12131.350000  0.250700   0.000000 # Sc Cl

kspace_style pppm 1e-05

# General Setup
timestep        0.001

# Thermodynamic Information Output
thermo_style custom step temp epair emol etotal press lx ly lz fmax cpu cpuremain
thermo          1000

# Intial Atom Velocity
velocity all create 300 80800 dist gaussian rot yes

# Stage 0: npt_equilibriation
restart         0
fix             int all npt aniso 1.0 1.0 0.1 temp 300 300 $(100*dt)
fix             int all npt aniso 1.0 1.0 0.1 temp 300 300 0.10000000000000000555
run             50000
PPPM initialization ...
  G vector (1/distance) = 0.271552
  grid = 30 30 30
  stencil order = 5
  estimated absolute RMS force accuracy = 0.000111037
  estimated relative force accuracy = 7.71111e-06
  3d grid and FFT values/proc = 2548 384
  update every 1 steps, delay 10 steps, check yes
Step Temp E_pair E_mol TotEng Press Lx Ly Lz Fmax CPU CPULeft
0          300   -9859.8291            0   -9803.3294   -715.17441    30.840886    30.939923    30.861307    2.7005434            0            0
Averages over the last 26 of 51 rows, steps 25000 to 50000:
Temp E_pair E_mol TotEng Press Lx Ly Lz Fmax
299.7 -10194.8 0 -10138.3 17.2649 33.1933 33.4096 33.1718 2.59206
Loop time of 72.0072 on 80 procs for 50000 steps with 1458 atoms

# Stage 1: nvt_equilibriation
unfix int
restart         0
fix             int all nvt temp 300 300 $(100*dt) tchain 2
fix             int all nvt temp 300 300 0.10000000000000000555 tchain 2
run             100000
PPPM initialization ...
  G vector (1/distance) = 0.266818
  grid = 30 30 30
  stencil order = 5
  estimated absolute RMS force accuracy = 0.000139708
  estimated relative force accuracy = 9.70221e-06
  3d grid and FFT values/proc = 2548 384
Step Temp E_pair E_mol TotEng Press Lx Ly Lz Fmax CPU CPULeft
50000    308.72327   -10196.013            0    -10137.87    1417.3632    32.914457    33.522369    33.090493    2.4357007            0            0
Averages over the last 51 of 101 rows, steps 100000 to 150000:
Temp E_pair E_mol TotEng Press Lx Ly Lz Fmax
300.044 -10201 0 -10144.4 163.026 32.9145 33.5224 33.0905 2.47881
Loop time of 128.011 on 80 procs for 100000 steps with 1458 atoms

# Final Commands
variable final_energy equal etotal
final_energy: -10144.9868557717
print "END_OF_COMP"
END_OF_COMP
