LAMMPS (7 Aug 2019)

# Input written to comply with LAMMPS 2017-08-11 00:00:00

# Atomic Configuration
units           metal
boundary        p p p
box             tilt large
atom_style      charge
read_data       triclinic_3x3x3.lmp
  orthogonal box = (0 0 0) to (31.2111 31.2111 31.2111)
  reading atoms ...
  1458 atoms
group           lithium type 1
459 atoms in group lithium
group           scandium type 2
135 atoms in group scandium
group           chloride type 3
864 atoms in group chloride
variable        T1 equal 300
variable        dt equal 0.001

# Potential Setup
pair_style      buck/coul/long 12.0
pair_coeff      * * 0.0 1.0 0.0
pair_coeff      1 1    360.530000  0.161000   0.000000 # Li Li
pair_coeff      1 3    421.040000  0.344000   0.000000 # Li Cl
pair_coeff      3 3   1227.200000  0.321000  14.530000 # Cl Cl
pair_coeff      2 3  12131.350000  0.250700   0.000000 # Sc Cl

kspace_style    pppm 1e-05

# General Setup
timestep        0.001

# Thermodynamic Information Output
thermo_style    custom step temp epair emol etotal press lx ly lz fmax cpu cpuremain
thermo          1000

# Intial Atom Velocity
velocity        all create 300 444764 dist gaussian rot yes

# Stage 0: npt_equilibriation
restart         0
fix             int all npt aniso 1.0 1.0 1 temp 300 300 $(100*dt)
fix             int all npt aniso 1.0 1.0 1 temp 300 300 0.10000000000000000555
run             50000
PPPM initialization ...
  G vector (1/distance) = 0.270832
  grid = 30 30 30
  stencil order = 5
  estimated absolute RMS force accuracy = 0.000115694
  estimated relative force accuracy = 8.03452e-06
  3d grid and FFT values/proc = 2548 384
  update every 1 steps, delay 10 steps, check yes
Step Temp E_pair E_mol TotEng Press Lx Ly Lz Fmax CPU CPULeft
0          300   -8863.2033            0   -8806.7037   -7699.5267      31.2111      31.2111      31.2111    5.7882127            0            0
Averages over the last 26 of 51 rows, steps 25000 to 50000:
Temp E_pair E_mol TotEng Press Lx Ly Lz Fmax
300.204 -10202.2 0 -10145.7 -210.953 31.9728 33.3336 33.6245 2.45293
Loop time of 65.471 on 80 procs for 50000 steps with 1458 atoms

# Stage 1: nvt_equilibriation
unfix           int
restart         0
fix             int all nvt temp 300 300 $(100*dt)
fix             int all nvt temp 300 300 0.10000000000000000555
run             6000000
PPPM initialization ...
  G vector (1/distance) = 0.267077
  grid = 30 30 30
  stencil order = 5
  estimated absolute RMS force accuracy = 0.00013865
  estimated relative force accuracy = 9.62868e-06
  3d grid and FFT values/proc = 2548 384
Step Temp E_pair E_mol TotEng Press Lx Ly Lz Fmax CPU CPULeft
50000    292.06752   -10207.124            0   -10152.118    230.96458    31.705067    33.393868    33.552542    2.5133915            0            0
Averages over the last 3001 of 6001 rows, steps 3050000 to 6050000:
Temp E_pair E_mol TotEng Press Lx Ly Lz Fmax
300.04 -10215.2 0 -10158.7 -1181.2 31.7051 33.3939 33.5525 2.41521
Loop time of 7256.77 on 80 procs for 6000000 steps with 1458 atoms

# Stage 2: main_nvt_simulation
unfix           int
compute         lithiummsd lithium msd com yes
compute         scandiummsd scandium msd com yes
compute         chloridemsd chloride msd com yes
fix             lithiummsdt lithium ave/time 1 1 1000 c_lithiummsd[4] file triclinic_3x3x3_300_li.txt
fix             scandiummymsdt scandium ave/time 1 1 1000 c_scandiummsd[4] file triclinic_3x3x3_300_sc.txt
fix             chloridemymsdt chloride ave/time 1 1 1000 c_chloridemsd[4] file triclinic_3x3x3_300_cl.txt
dump            atom_info all custom 1000 triclinic_3x3x3_300.lammpstrj element x y z q id type vx vy vz
dump_modify     atom_info append yes
dump_modify     atom_info sort id
dump_modify     atom_info element Li Sc Cl
restart         0
fix             int all nvt temp 300 300 $(100*dt)
fix             int all nvt temp 300 300 0.10000000000000000555
run             10000000
PPPM initialization ...
  G vector (1/distance) = 0.267077
  grid = 30 30 30
  stencil order = 5
  estimated absolute RMS force accuracy = 0.00013865
  estimated relative force accuracy = 9.62868e-06
  3d grid and FFT values/proc = 2548 384
Step Temp E_pair E_mol TotEng Press Lx Ly Lz Fmax CPU CPULeft
6050000    297.27261   -10214.773            0   -10158.787   -2205.0679    31.705067    33.393868    33.552542    2.0445766            0            0
Averages over the last 5001 of 10001 rows, steps 11050000 to 16050000:
Temp E_pair E_mol TotEng Press Lx Ly Lz Fmax
299.908 -10217.2 0 -10160.8 -1319.22 31.7051 33.3939 33.5525 2.41663
Loop time of 12032.1 on 80 procs for 10000000 steps with 1458 atoms

# Final Commands
variable        final_energy equal etotal
ERROR on proc 0: Substitution for illegal variable 'final_energy' (../input.cpp:553)
