
#======================================================================
# CRYSTAL DATA
#----------------------------------------------------------------------
data_VESTA_phase_1

_chemical_name_common                  'Li17 Sc5 Cl32'
_cell_length_a                         82.242363
_cell_length_b                         82.506508
_cell_length_c                         82.297569
_cell_angle_alpha                      90.164062
_cell_angle_beta                       90.181519
_cell_angle_gamma                      90.058784
_cell_volume                           558427.248172
_space_group_name_H-M_alt              'P 1'
_space_group_IT_number                 1

loop_
_space_group_symop_operation_xyz
   'x, y, z'
   'x, y, z+1/8'
   'x, y, z+1/4'
   'x, y, z+3/8'
   'x, y, z+1/2'
   'x, y, z+5/8'
   'x, y, z+3/4'
   'x, y, z+7/8'
   'x, y+1/8, z'
   'x, y+1/8, z+1/8'
   'x, y+1/8, z+1/4'
   'x, y+1/8, z+3/8'
   'x, y+1/8, z+1/2'
   'x, y+1/8, z+5/8'
   'x, y+1/8, z+3/4'
   'x, y+1/8, z+7/8'
   'x, y+1/4, z'
   'x, y+1/4, z+1/8'
   'x, y+1/4, z+1/4'
   'x, y+1/4, z+3/8'
   'x, y+1/4, z+1/2'
   'x, y+1/4, z+5/8'
   'x, y+1/4, z+3/4'
   'x, y+1/4, z+7/8'
   'x, y+3/8, z'
   'x, y+3/8, z+1/8'
   'x, y+3/8, z+1/4'
   'x, y+3/8, z+3/8'
   'x, y+3/8, z+1/2'
   'x, y+3/8, z+5/8'
   'x, y+3/8, z+3/4'
   'x, y+3/8, z+7/8'
   'x, y+1/2, z'
   'x, y+1/2, z+1/8'
   'x, y+1/2, z+1/4'
   'x, y+1/2, z+3/8'
   'x, y+1/2, z+1/2'
   'x, y+1/2, z+5/8'
   'x, y+1/2, z+3/4'
   'x, y+1/2, z+7/8'
   'x, y+5/8, z'
   'x, y+5/8, z+1/8'
   'x, y+5/8, z+1/4'
   'x, y+5/8, z+3/8'
   'x, y+5/8, z+1/2'
   'x, y+5/8, z+5/8'
   'x, y+5/8, z+3/4'
   'x, y+5/8, z+7/8'
   'x, y+3/4, z'
   'x, y+3/4, z+1/8'
   'x, y+3/4, z+1/4'
   'x, y+3/4, z+3/8'
   'x, y+3/4, z+1/2'
   'x, y+3/4, z+5/8'
   'x, y+3/4, z+3/4'
   'x, y+3/4, z+7/8'
   'x, y+7/8, z'
   'x, y+7/8, z+1/8'
   'x, y+7/8, z+1/4'
   'x, y+7/8, z+3/8'
   'x, y+7/8, z+1/2'
   'x, y+7/8, z+5/8'
   'x, y+7/8, z+3/4'
   'x, y+7/8, z+7/8'
   'x+1/8, y, z'
   'x+1/8, y, z+1/8'
   'x+1/8, y, z+1/4'
   'x+1/8, y, z+3/8'
   'x+1/8, y, z+1/2'
   'x+1/8, y, z+5/8'
   'x+1/8, y, z+3/4'
   'x+1/8, y, z+7/8'
   'x+1/8, y+1/8, z'
   'x+1/8, y+1/8, z+1/8'
   'x+1/8, y+1/8, z+1/4'
   'x+1/8, y+1/8, z+3/8'
   'x+1/8, y+1/8, z+1/2'
   'x+1/8, y+1/8, z+5/8'
   'x+1/8, y+1/8, z+3/4'
   'x+1/8, y+1/8, z+7/8'
   'x+1/8, y+1/4, z'
   'x+1/8, y+1/4, z+1/8'
   'x+1/8, y+1/4, z+1/4'
   'x+1/8, y+1/4, z+3/8'
   'x+1/8, y+1/4, z+1/2'
   'x+1/8, y+1/4, z+5/8'
   'x+1/8, y+1/4, z+3/4'
   'x+1/8, y+1/4, z+7/8'
   'x+1/8, y+3/8, z'
   'x+1/8, y+3/8, z+1/8'
   'x+1/8, y+3/8, z+1/4'
   'x+1/8, y+3/8, z+3/8'
   'x+1/8, y+3/8, z+1/2'
   'x+1/8, y+3/8, z+5/8'
   'x+1/8, y+3/8, z+3/4'
   'x+1/8, y+3/8, z+7/8'
   'x+1/8, y+1/2, z'
   'x+1/8, y+1/2, z+1/8'
   'x+1/8, y+1/2, z+1/4'
   'x+1/8, y+1/2, z+3/8'
   'x+1/8, y+1/2, z+1/2'
   'x+1/8, y+1/2, z+5/8'
   'x+1/8, y+1/2, z+3/4'
   'x+1/8, y+1/2, z+7/8'
   'x+1/8, y+5/8, z'
   'x+1/8, y+5/8, z+1/8'
   'x+1/8, y+5/8, z+1/4'
   'x+1/8, y+5/8, z+3/8'
   'x+1/8, y+5/8, z+1/2'
   'x+1/8, y+5/8, z+5/8'
   'x+1/8, y+5/8, z+3/4'
   'x+1/8, y+5/8, z+7/8'
   'x+1/8, y+3/4, z'
   'x+1/8, y+3/4, z+1/8'
   'x+1/8, y+3/4, z+1/4'
   'x+1/8, y+3/4, z+3/8'
   'x+1/8, y+3/4, z+1/2'
   'x+1/8, y+3/4, z+5/8'
   'x+1/8, y+3/4, z+3/4'
   'x+1/8, y+3/4, z+7/8'
   'x+1/8, y+7/8, z'
   'x+1/8, y+7/8, z+1/8'
   'x+1/8, y+7/8, z+1/4'
   'x+1/8, y+7/8, z+3/8'
   'x+1/8, y+7/8, z+1/2'
   'x+1/8, y+7/8, z+5/8'
   'x+1/8, y+7/8, z+3/4'
   'x+1/8, y+7/8, z+7/8'
   'x+1/4, y, z'
   'x+1/4, y, z+1/8'
   'x+1/4, y, z+1/4'
   'x+1/4, y, z+3/8'
   'x+1/4, y, z+1/2'
   'x+1/4, y, z+5/8'
   'x+1/4, y, z+3/4'
   'x+1/4, y, z+7/8'
   'x+1/4, y+1/8, z'
   'x+1/4, y+1/8, z+1/8'
   'x+1/4, y+1/8, z+1/4'
   'x+1/4, y+1/8, z+3/8'
   'x+1/4, y+1/8, z+1/2'
   'x+1/4, y+1/8, z+5/8'
   'x+1/4, y+1/8, z+3/4'
   'x+1/4, y+1/8, z+7/8'
   'x+1/4, y+1/4, z'
   'x+1/4, y+1/4, z+1/8'
   'x+1/4, y+1/4, z+1/4'
   'x+1/4, y+1/4, z+3/8'
   'x+1/4, y+1/4, z+1/2'
   'x+1/4, y+1/4, z+5/8'
   'x+1/4, y+1/4, z+3/4'
   'x+1/4, y+1/4, z+7/8'
   'x+1/4, y+3/8, z'
   'x+1/4, y+3/8, z+1/8'
   'x+1/4, y+3/8, z+1/4'
   'x+1/4, y+3/8, z+3/8'
   'x+1/4, y+3/8, z+1/2'
   'x+1/4, y+3/8, z+5/8'
   'x+1/4, y+3/8, z+3/4'
   'x+1/4, y+3/8, z+7/8'
   'x+1/4, y+1/2, z'
   'x+1/4, y+1/2, z+1/8'
   'x+1/4, y+1/2, z+1/4'
   'x+1/4, y+1/2, z+3/8'
   'x+1/4, y+1/2, z+1/2'
   'x+1/4, y+1/2, z+5/8'
   'x+1/4, y+1/2, z+3/4'
   'x+1/4, y+1/2, z+7/8'
   'x+1/4, y+5/8, z'
   'x+1/4, y+5/8, z+1/8'
   'x+1/4, y+5/8, z+1/4'
   'x+1/4, y+5/8, z+3/8'
   'x+1/4, y+5/8, z+1/2'
   'x+1/4, y+5/8, z+5/8'
   'x+1/4, y+5/8, z+3/4'
   'x+1/4, y+5/8, z+7/8'
   'x+1/4, y+3/4, z'
   'x+1/4, y+3/4, z+1/8'
   'x+1/4, y+3/4, z+1/4'
   'x+1/4, y+3/4, z+3/8'
   'x+1/4, y+3/4, z+1/2'
   'x+1/4, y+3/4, z+5/8'
   'x+1/4, y+3/4, z+3/4'
   'x+1/4, y+3/4, z+7/8'
   'x+1/4, y+7/8, z'
   'x+1/4, y+7/8, z+1/8'
   'x+1/4, y+7/8, z+1/4'
   'x+1/4, y+7/8, z+3/8'
   'x+1/4, y+7/8, z+1/2'
   'x+1/4, y+7/8, z+5/8'
   'x+1/4, y+7/8, z+3/4'
   'x+1/4, y+7/8, z+7/8'
   'x+3/8, y, z'
   'x+3/8, y, z+1/8'
   'x+3/8, y, z+1/4'
   'x+3/8, y, z+3/8'
   'x+3/8, y, z+1/2'
   'x+3/8, y, z+5/8'
   'x+3/8, y, z+3/4'
   'x+3/8, y, z+7/8'
   'x+3/8, y+1/8, z'
   'x+3/8, y+1/8, z+1/8'
   'x+3/8, y+1/8, z+1/4'
   'x+3/8, y+1/8, z+3/8'
   'x+3/8, y+1/8, z+1/2'
   'x+3/8, y+1/8, z+5/8'
   'x+3/8, y+1/8, z+3/4'
   'x+3/8, y+1/8, z+7/8'
   'x+3/8, y+1/4, z'
   'x+3/8, y+1/4, z+1/8'
   'x+3/8, y+1/4, z+1/4'
   'x+3/8, y+1/4, z+3/8'
   'x+3/8, y+1/4, z+1/2'
   'x+3/8, y+1/4, z+5/8'
   'x+3/8, y+1/4, z+3/4'
   'x+3/8, y+1/4, z+7/8'
   'x+3/8, y+3/8, z'
   'x+3/8, y+3/8, z+1/8'
   'x+3/8, y+3/8, z+1/4'
   'x+3/8, y+3/8, z+3/8'
   'x+3/8, y+3/8, z+1/2'
   'x+3/8, y+3/8, z+5/8'
   'x+3/8, y+3/8, z+3/4'
   'x+3/8, y+3/8, z+7/8'
   'x+3/8, y+1/2, z'
   'x+3/8, y+1/2, z+1/8'
   'x+3/8, y+1/2, z+1/4'
   'x+3/8, y+1/2, z+3/8'
   'x+3/8, y+1/2, z+1/2'
   'x+3/8, y+1/2, z+5/8'
   'x+3/8, y+1/2, z+3/4'
   'x+3/8, y+1/2, z+7/8'
   'x+3/8, y+5/8, z'
   'x+3/8, y+5/8, z+1/8'
   'x+3/8, y+5/8, z+1/4'
   'x+3/8, y+5/8, z+3/8'
   'x+3/8, y+5/8, z+1/2'
   'x+3/8, y+5/8, z+5/8'
   'x+3/8, y+5/8, z+3/4'
   'x+3/8, y+5/8, z+7/8'
   'x+3/8, y+3/4, z'
   'x+3/8, y+3/4, z+1/8'
   'x+3/8, y+3/4, z+1/4'
   'x+3/8, y+3/4, z+3/8'
   'x+3/8, y+3/4, z+1/2'
   'x+3/8, y+3/4, z+5/8'
   'x+3/8, y+3/4, z+3/4'
   'x+3/8, y+3/4, z+7/8'
   'x+3/8, y+7/8, z'
   'x+3/8, y+7/8, z+1/8'
   'x+3/8, y+7/8, z+1/4'
   'x+3/8, y+7/8, z+3/8'
   'x+3/8, y+7/8, z+1/2'
   'x+3/8, y+7/8, z+5/8'
   'x+3/8, y+7/8, z+3/4'
   'x+3/8, y+7/8, z+7/8'
   'x+1/2, y, z'
   'x+1/2, y, z+1/8'
   'x+1/2, y, z+1/4'
   'x+1/2, y, z+3/8'
   'x+1/2, y, z+1/2'
   'x+1/2, y, z+5/8'
   'x+1/2, y, z+3/4'
   'x+1/2, y, z+7/8'
   'x+1/2, y+1/8, z'
   'x+1/2, y+1/8, z+1/8'
   'x+1/2, y+1/8, z+1/4'
   'x+1/2, y+1/8, z+3/8'
   'x+1/2, y+1/8, z+1/2'
   'x+1/2, y+1/8, z+5/8'
   'x+1/2, y+1/8, z+3/4'
   'x+1/2, y+1/8, z+7/8'
   'x+1/2, y+1/4, z'
   'x+1/2, y+1/4, z+1/8'
   'x+1/2, y+1/4, z+1/4'
   'x+1/2, y+1/4, z+3/8'
   'x+1/2, y+1/4, z+1/2'
   'x+1/2, y+1/4, z+5/8'
   'x+1/2, y+1/4, z+3/4'
   'x+1/2, y+1/4, z+7/8'
   'x+1/2, y+3/8, z'
   'x+1/2, y+3/8, z+1/8'
   'x+1/2, y+3/8, z+1/4'
   'x+1/2, y+3/8, z+3/8'
   'x+1/2, y+3/8, z+1/2'
   'x+1/2, y+3/8, z+5/8'
   'x+1/2, y+3/8, z+3/4'
   'x+1/2, y+3/8, z+7/8'
   'x+1/2, y+1/2, z'
   'x+1/2, y+1/2, z+1/8'
   'x+1/2, y+1/2, z+1/4'
   'x+1/2, y+1/2, z+3/8'
   'x+1/2, y+1/2, z+1/2'
   'x+1/2, y+1/2, z+5/8'
   'x+1/2, y+1/2, z+3/4'
   'x+1/2, y+1/2, z+7/8'
   'x+1/2, y+5/8, z'
   'x+1/2, y+5/8, z+1/8'
   'x+1/2, y+5/8, z+1/4'
   'x+1/2, y+5/8, z+3/8'
   'x+1/2, y+5/8, z+1/2'
   'x+1/2, y+5/8, z+5/8'
   'x+1/2, y+5/8, z+3/4'
   'x+1/2, y+5/8, z+7/8'
   'x+1/2, y+3/4, z'
   'x+1/2, y+3/4, z+1/8'
   'x+1/2, y+3/4, z+1/4'
   'x+1/2, y+3/4, z+3/8'
   'x+1/2, y+3/4, z+1/2'
   'x+1/2, y+3/4, z+5/8'
   'x+1/2, y+3/4, z+3/4'
   'x+1/2, y+3/4, z+7/8'
   'x+1/2, y+7/8, z'
   'x+1/2, y+7/8, z+1/8'
   'x+1/2, y+7/8, z+1/4'
   'x+1/2, y+7/8, z+3/8'
   'x+1/2, y+7/8, z+1/2'
   'x+1/2, y+7/8, z+5/8'
   'x+1/2, y+7/8, z+3/4'
   'x+1/2, y+7/8, z+7/8'
   'x+5/8, y, z'
   'x+5/8, y, z+1/8'
   'x+5/8, y, z+1/4'
   'x+5/8, y, z+3/8'
   'x+5/8, y, z+1/2'
   'x+5/8, y, z+5/8'
   'x+5/8, y, z+3/4'
   'x+5/8, y, z+7/8'
   'x+5/8, y+1/8, z'
   'x+5/8, y+1/8, z+1/8'
   'x+5/8, y+1/8, z+1/4'
   'x+5/8, y+1/8, z+3/8'
   'x+5/8, y+1/8, z+1/2'
   'x+5/8, y+1/8, z+5/8'
   'x+5/8, y+1/8, z+3/4'
   'x+5/8, y+1/8, z+7/8'
   'x+5/8, y+1/4, z'
   'x+5/8, y+1/4, z+1/8'
   'x+5/8, y+1/4, z+1/4'
   'x+5/8, y+1/4, z+3/8'
   'x+5/8, y+1/4, z+1/2'
   'x+5/8, y+1/4, z+5/8'
   'x+5/8, y+1/4, z+3/4'
   'x+5/8, y+1/4, z+7/8'
   'x+5/8, y+3/8, z'
   'x+5/8, y+3/8, z+1/8'
   'x+5/8, y+3/8, z+1/4'
   'x+5/8, y+3/8, z+3/8'
   'x+5/8, y+3/8, z+1/2'
   'x+5/8, y+3/8, z+5/8'
   'x+5/8, y+3/8, z+3/4'
   'x+5/8, y+3/8, z+7/8'
   'x+5/8, y+1/2, z'
   'x+5/8, y+1/2, z+1/8'
   'x+5/8, y+1/2, z+1/4'
   'x+5/8, y+1/2, z+3/8'
   'x+5/8, y+1/2, z+1/2'
   'x+5/8, y+1/2, z+5/8'
   'x+5/8, y+1/2, z+3/4'
   'x+5/8, y+1/2, z+7/8'
   'x+5/8, y+5/8, z'
   'x+5/8, y+5/8, z+1/8'
   'x+5/8, y+5/8, z+1/4'
   'x+5/8, y+5/8, z+3/8'
   'x+5/8, y+5/8, z+1/2'
   'x+5/8, y+5/8, z+5/8'
   'x+5/8, y+5/8, z+3/4'
   'x+5/8, y+5/8, z+7/8'
   'x+5/8, y+3/4, z'
   'x+5/8, y+3/4, z+1/8'
   'x+5/8, y+3/4, z+1/4'
   'x+5/8, y+3/4, z+3/8'
   'x+5/8, y+3/4, z+1/2'
   'x+5/8, y+3/4, z+5/8'
   'x+5/8, y+3/4, z+3/4'
   'x+5/8, y+3/4, z+7/8'
   'x+5/8, y+7/8, z'
   'x+5/8, y+7/8, z+1/8'
   'x+5/8, y+7/8, z+1/4'
   'x+5/8, y+7/8, z+3/8'
   'x+5/8, y+7/8, z+1/2'
   'x+5/8, y+7/8, z+5/8'
   'x+5/8, y+7/8, z+3/4'
   'x+5/8, y+7/8, z+7/8'
   'x+3/4, y, z'
   'x+3/4, y, z+1/8'
   'x+3/4, y, z+1/4'
   'x+3/4, y, z+3/8'
   'x+3/4, y, z+1/2'
   'x+3/4, y, z+5/8'
   'x+3/4, y, z+3/4'
   'x+3/4, y, z+7/8'
   'x+3/4, y+1/8, z'
   'x+3/4, y+1/8, z+1/8'
   'x+3/4, y+1/8, z+1/4'
   'x+3/4, y+1/8, z+3/8'
   'x+3/4, y+1/8, z+1/2'
   'x+3/4, y+1/8, z+5/8'
   'x+3/4, y+1/8, z+3/4'
   'x+3/4, y+1/8, z+7/8'
   'x+3/4, y+1/4, z'
   'x+3/4, y+1/4, z+1/8'
   'x+3/4, y+1/4, z+1/4'
   'x+3/4, y+1/4, z+3/8'
   'x+3/4, y+1/4, z+1/2'
   'x+3/4, y+1/4, z+5/8'
   'x+3/4, y+1/4, z+3/4'
   'x+3/4, y+1/4, z+7/8'
   'x+3/4, y+3/8, z'
   'x+3/4, y+3/8, z+1/8'
   'x+3/4, y+3/8, z+1/4'
   'x+3/4, y+3/8, z+3/8'
   'x+3/4, y+3/8, z+1/2'
   'x+3/4, y+3/8, z+5/8'
   'x+3/4, y+3/8, z+3/4'
   'x+3/4, y+3/8, z+7/8'
   'x+3/4, y+1/2, z'
   'x+3/4, y+1/2, z+1/8'
   'x+3/4, y+1/2, z+1/4'
   'x+3/4, y+1/2, z+3/8'
   'x+3/4, y+1/2, z+1/2'
   'x+3/4, y+1/2, z+5/8'
   'x+3/4, y+1/2, z+3/4'
   'x+3/4, y+1/2, z+7/8'
   'x+3/4, y+5/8, z'
   'x+3/4, y+5/8, z+1/8'
   'x+3/4, y+5/8, z+1/4'
   'x+3/4, y+5/8, z+3/8'
   'x+3/4, y+5/8, z+1/2'
   'x+3/4, y+5/8, z+5/8'
   'x+3/4, y+5/8, z+3/4'
   'x+3/4, y+5/8, z+7/8'
   'x+3/4, y+3/4, z'
   'x+3/4, y+3/4, z+1/8'
   'x+3/4, y+3/4, z+1/4'
   'x+3/4, y+3/4, z+3/8'
   'x+3/4, y+3/4, z+1/2'
   'x+3/4, y+3/4, z+5/8'
   'x+3/4, y+3/4, z+3/4'
   'x+3/4, y+3/4, z+7/8'
   'x+3/4, y+7/8, z'
   'x+3/4, y+7/8, z+1/8'
   'x+3/4, y+7/8, z+1/4'
   'x+3/4, y+7/8, z+3/8'
   'x+3/4, y+7/8, z+1/2'
   'x+3/4, y+7/8, z+5/8'
   'x+3/4, y+7/8, z+3/4'
   'x+3/4, y+7/8, z+7/8'
   'x+7/8, y, z'
   'x+7/8, y, z+1/8'
   'x+7/8, y, z+1/4'
   'x+7/8, y, z+3/8'
   'x+7/8, y, z+1/2'
   'x+7/8, y, z+5/8'
   'x+7/8, y, z+3/4'
   'x+7/8, y, z+7/8'
   'x+7/8, y+1/8, z'
   'x+7/8, y+1/8, z+1/8'
   'x+7/8, y+1/8, z+1/4'
   'x+7/8, y+1/8, z+3/8'
   'x+7/8, y+1/8, z+1/2'
   'x+7/8, y+1/8, z+5/8'
   'x+7/8, y+1/8, z+3/4'
   'x+7/8, y+1/8, z+7/8'
   'x+7/8, y+1/4, z'
   'x+7/8, y+1/4, z+1/8'
   'x+7/8, y+1/4, z+1/4'
   'x+7/8, y+1/4, z+3/8'
   'x+7/8, y+1/4, z+1/2'
   'x+7/8, y+1/4, z+5/8'
   'x+7/8, y+1/4, z+3/4'
   'x+7/8, y+1/4, z+7/8'
   'x+7/8, y+3/8, z'
   'x+7/8, y+3/8, z+1/8'
   'x+7/8, y+3/8, z+1/4'
   'x+7/8, y+3/8, z+3/8'
   'x+7/8, y+3/8, z+1/2'
   'x+7/8, y+3/8, z+5/8'
   'x+7/8, y+3/8, z+3/4'
   'x+7/8, y+3/8, z+7/8'
   'x+7/8, y+1/2, z'
   'x+7/8, y+1/2, z+1/8'
   'x+7/8, y+1/2, z+1/4'
   'x+7/8, y+1/2, z+3/8'
   'x+7/8, y+1/2, z+1/2'
   'x+7/8, y+1/2, z+5/8'
   'x+7/8, y+1/2, z+3/4'
   'x+7/8, y+1/2, z+7/8'
   'x+7/8, y+5/8, z'
   'x+7/8, y+5/8, z+1/8'
   'x+7/8, y+5/8, z+1/4'
   'x+7/8, y+5/8, z+3/8'
   'x+7/8, y+5/8, z+1/2'
   'x+7/8, y+5/8, z+5/8'
   'x+7/8, y+5/8, z+3/4'
   'x+7/8, y+5/8, z+7/8'
   'x+7/8, y+3/4, z'
   'x+7/8, y+3/4, z+1/8'
   'x+7/8, y+3/4, z+1/4'
   'x+7/8, y+3/4, z+3/8'
   'x+7/8, y+3/4, z+1/2'
   'x+7/8, y+3/4, z+5/8'
   'x+7/8, y+3/4, z+3/4'
   'x+7/8, y+3/4, z+7/8'
   'x+7/8, y+7/8, z'
   'x+7/8, y+7/8, z+1/8'
   'x+7/8, y+7/8, z+1/4'
   'x+7/8, y+7/8, z+3/8'
   'x+7/8, y+7/8, z+1/2'
   'x+7/8, y+7/8, z+5/8'
   'x+7/8, y+7/8, z+3/4'
   'x+7/8, y+7/8, z+7/8'

loop_
   _atom_site_label
   _atom_site_occupancy
   _atom_site_fract_x
   _atom_site_fract_y
   _atom_site_fract_z
   _atom_site_adp_type
   _atom_site_U_iso_or_equiv
   _atom_site_type_symbol
   Li0        1.0     0.046567     0.046536     0.110388    Uiso  ? Li
   Li1        1.0     0.063241     0.093818     0.031421    Uiso  ? Li
   Li2        1.0     0.032578     0.092418     0.064593    Uiso  ? Li
   Li3        1.0     0.093847     0.061867     0.031346    Uiso  ? Li
   Li4        1.0     0.063233     0.001887     0.063227    Uiso  ? Li
   Li5        1.0     0.096550     0.096489     0.000747    Uiso  ? Li
   Li6        1.0     0.063097     0.059084     0.063156    Uiso  ? Li
   Li7        1.0     0.061760     0.093804     0.093686    Uiso  ? Li
   Li8        1.0     0.029736     0.095116     0.122916    Uiso  ? Li
   Li9        1.0     0.032597     0.031247     0.061776    Uiso  ? Li
   Li10       1.0     0.095112     0.032493     0.002064    Uiso  ? Li
   Li11       1.0     0.063248     0.031263     0.032677    Uiso  ? Li
   Li12       1.0     0.999691     0.094434     0.030350    Uiso  ? Li
   Li13       1.0     0.093692     0.093809     0.063067    Uiso  ? Li
   Li14       1.0     0.031306     0.122921     0.093874    Uiso  ? Li
   Li15       1.0     0.094850     0.004340     0.031288    Uiso  ? Li
   Li16       1.0     0.000699     0.064547     0.000693    Uiso  ? Li
   Sc17       1.0     0.031208     0.061827     0.031339    Uiso  ? Sc
   Sc18       1.0     0.093767     0.063208     0.093733    Uiso  ? Sc
   Sc19       1.0     0.000660     0.031241     0.095115    Uiso  ? Sc
   Sc20       1.0     0.061878     0.000681     0.124380    Uiso  ? Sc
   Sc21       1.0     0.124350     0.124348     0.061820    Uiso  ? Sc
   Cl22       1.0     0.032442     0.032820     0.031474    Uiso  ? Cl
   Cl23       1.0     0.093022     0.063769     0.063956    Uiso  ? Cl
   Cl24       1.0     0.062421     0.999926     0.094637    Uiso  ? Cl
   Cl25       1.0     0.000307     0.093372     0.001350    Uiso  ? Cl
   Cl26       1.0     0.032667     0.999609     0.124386    Uiso  ? Cl
   Cl27       1.0     0.093214     0.092723     0.094426    Uiso  ? Cl
   Cl28       1.0     0.061559     0.030226     0.061948    Uiso  ? Cl
   Cl29       1.0     0.001422     0.063362     0.031054    Uiso  ? Cl
   Cl30       1.0     0.062809     0.095794     0.062653    Uiso  ? Cl
   Cl31       1.0     0.094448     0.063237     0.123974    Uiso  ? Cl
   Cl32       1.0     0.999880     0.001276     0.093113    Uiso  ? Cl
   Cl33       1.0     0.000076     0.032831     0.124022    Uiso  ? Cl
   Cl34       1.0     0.062000     0.063095     0.032383    Uiso  ? Cl
   Cl35       1.0     0.029919     0.999653     0.063394    Uiso  ? Cl
   Cl36       1.0     0.032759     0.094010     0.093762    Uiso  ? Cl
   Cl37       1.0     0.063646     0.000059     0.030326    Uiso  ? Cl
   Cl38       1.0     0.092933     0.033272     0.030623    Uiso  ? Cl
   Cl39       1.0     0.124240     0.061676     0.093606    Uiso  ? Cl
   Cl40       1.0     0.032436     0.062374     0.061509    Uiso  ? Cl
   Cl41       1.0     0.092416     0.000878     0.000861    Uiso  ? Cl
   Cl42       1.0     0.031336     0.064288     0.001181    Uiso  ? Cl
   Cl43       1.0     0.124283     0.999964     0.032800    Uiso  ? Cl
   Cl44       1.0     0.063757     0.062595     0.093311    Uiso  ? Cl
   Cl45       1.0     0.094548     0.124211     0.062102    Uiso  ? Cl
   Cl46       1.0     0.000604     0.029939     0.064343    Uiso  ? Cl
   Cl47       1.0     0.063270     0.095481     0.000459    Uiso  ? Cl
   Cl48       1.0     0.063680     0.030584     0.001097    Uiso  ? Cl
   Cl49       1.0     0.000126     0.094935     0.062495    Uiso  ? Cl
   Cl50       1.0     0.095052     0.032869     0.094578    Uiso  ? Cl
   Cl51       1.0     0.032150     0.092306     0.032166    Uiso  ? Cl
   Cl52       1.0     0.093726     0.092105     0.031406    Uiso  ? Cl
   Cl53       1.0     0.030434     0.030635     0.093074    Uiso  ? Cl
