
#======================================================================
# CRYSTAL DATA
#----------------------------------------------------------------------
data_VESTA_phase_1

_chemical_name_common                  '# Compound: Li17Sc5Cl32. Old comment: '
_cell_length_a                         10.347747
_cell_length_b                         10.200715
_cell_length_c                         10.436441
_cell_angle_alpha                      90.110672
_cell_angle_beta                       90.896912
_cell_angle_gamma                      90.065170
_cell_volume                           1101.474714
_space_group_name_H-M_alt              'P 1'
_space_group_IT_number                 1

loop_
_space_group_symop_operation_xyz
   'x, y, z'

loop_
   _atom_site_label
   _atom_site_occupancy
   _atom_site_fract_x
   _atom_site_fract_y
   _atom_site_fract_z
   _atom_site_adp_type
   _atom_site_U_iso_or_equiv
   _atom_site_type_symbol
   Li1        1.0     0.372737     0.371957     0.872819    Uiso  ? Li
   Li2        1.0     0.771690     0.750800     0.005949    Uiso  ? Li
   Li3        1.0     0.261028     0.749041     0.515317    Uiso  ? Li
   Li4        1.0     0.749664     0.494003     0.250570    Uiso  ? Li
   Li5        1.0     0.505914     0.006294     0.505662    Uiso  ? Li
   Li6        1.0     0.127319     0.912829     0.130425    Uiso  ? Li
   Li7        1.0     0.494638     0.493506     0.494757    Uiso  ? Li
   Li8        1.0     0.494554     0.760646     0.739880    Uiso  ? Li
   Li9        1.0     0.260832     0.738465     0.961795    Uiso  ? Li
   Li10       1.0     0.261131     0.250535     0.494100    Uiso  ? Li
   Li11       1.0     0.750407     0.249969     0.016432    Uiso  ? Li
   Li12       1.0     0.505290     0.250381     0.261481    Uiso  ? Li
   Li13       1.0     0.983657     0.727056     0.260840    Uiso  ? Li
   Li14       1.0     0.738253     0.749866     0.483285    Uiso  ? Li
   Li15       1.0     0.260872     0.984024     0.750056    Uiso  ? Li
   Li16       1.0     0.748892     0.017188     0.250195    Uiso  ? Li
   Li17       1.0     0.005441     0.505554     0.005676    Uiso  ? Li
   Sc1        1.0     0.249886     0.494665     0.250644    Uiso  ? Sc
   Sc2        1.0     0.747784     0.506157     0.744084    Uiso  ? Sc
   Sc3        1.0    -0.003912     0.249165     0.756269    Uiso  ? Sc
   Sc4        1.0     0.506004     0.994879     0.004801    Uiso  ? Sc
   Sc5        1.0     0.992960     0.994920     0.500561    Uiso  ? Sc
   Cl1        1.0     0.252024     0.259523     0.254608    Uiso  ? Cl
   Cl2        1.0     0.739246     0.507966     0.509540    Uiso  ? Cl
   Cl3        1.0     0.499133     0.002911     0.764082    Uiso  ? Cl
   Cl4        1.0     0.009568     0.752107     0.016006    Uiso  ? Cl
   Cl5        1.0     0.265188     0.993702     0.986479    Uiso  ? Cl
   Cl6        1.0     0.749780     0.741872     0.754741    Uiso  ? Cl
   Cl7        1.0     0.488186     0.240690     0.493820    Uiso  ? Cl
   Cl8        1.0     0.008725     0.492952     0.242972    Uiso  ? Cl
   Cl9        1.0     0.499917     0.765048     0.509994    Uiso  ? Cl
   Cl10       1.0     0.760030     0.503319     0.986184    Uiso  ? Cl
   Cl11       1.0    -0.005654     0.005372     0.741679    Uiso  ? Cl
   Cl12       1.0     0.994286     0.251398     0.985392    Uiso  ? Cl
   Cl13       1.0     0.488283     0.500478     0.256047    Uiso  ? Cl
   Cl14       1.0     0.234854    -0.000891     0.508893    Uiso  ? Cl
   Cl15       1.0     0.258951     0.751468     0.742239    Uiso  ? Cl
   Cl16       1.0     0.504881     0.003315     0.239689    Uiso  ? Cl
   Cl17       1.0     0.739454     0.261030     0.241075    Uiso  ? Cl
   Cl18       1.0     0.990950     0.493262     0.747062    Uiso  ? Cl
   Cl19       1.0     0.254594     0.502384     0.488144    Uiso  ? Cl
   Cl20       1.0     0.744030    -0.001954     0.010614    Uiso  ? Cl
   Cl21       1.0     0.246595     0.505439     0.009168    Uiso  ? Cl
   Cl22       1.0     0.987542     0.008861     0.266828    Uiso  ? Cl
   Cl23       1.0     0.510159     0.501844     0.743708    Uiso  ? Cl
   Cl24       1.0     0.755460     0.991541     0.490446    Uiso  ? Cl
   Cl25       1.0    -0.002430     0.240235     0.513985    Uiso  ? Cl
   Cl26       1.0     0.504606     0.756335     0.990111    Uiso  ? Cl
   Cl27       1.0     0.506679     0.239644     0.002808    Uiso  ? Cl
   Cl28       1.0    -0.001173     0.757605     0.499652    Uiso  ? Cl
   Cl29       1.0     0.755403     0.259829     0.752737    Uiso  ? Cl
   Cl30       1.0     0.235396     0.743276     0.256276    Uiso  ? Cl
   Cl31       1.0     0.756182     0.733694     0.246101    Uiso  ? Cl
   Cl32       1.0     0.234114     0.244846     0.743324    Uiso  ? Cl
