
#======================================================================
# CRYSTAL DATA
#----------------------------------------------------------------------
data_VESTA_phase_1

_chemical_name_common                  '# Compound: Li17Sc5Cl32. Old comment: '
_cell_length_a                         10.283521
_cell_length_b                         10.311230
_cell_length_c                         10.370639
_cell_angle_alpha                      90.633804
_cell_angle_beta                       90.150597
_cell_angle_gamma                      90.140747
_cell_volume                           1099.583931
_space_group_name_H-M_alt              'P 1'
_space_group_IT_number                 1

loop_
_space_group_symop_operation_xyz
   'x, y, z'

loop_
   _atom_site_label
   _atom_site_occupancy
   _atom_site_fract_x
   _atom_site_fract_y
   _atom_site_fract_z
   _atom_site_adp_type
   _atom_site_U_iso_or_equiv
   _atom_site_type_symbol
   Li1        1.0     0.382803     0.371958     0.882665    Uiso  ? Li
   Li2        1.0     0.760464     0.750152     0.016555    Uiso  ? Li
   Li3        1.0     0.260531     0.749375     0.505903    Uiso  ? Li
   Li4        1.0     0.750010     0.494010     0.250485    Uiso  ? Li
   Li5        1.0     0.505750     0.005834     0.494384    Uiso  ? Li
   Li6        1.0     0.083438     0.871857     0.871755    Uiso  ? Li
   Li7        1.0     0.494586     0.493460     0.494678    Uiso  ? Li
   Li8        1.0     0.494132     0.760679     0.749818    Uiso  ? Li
   Li9        1.0     0.271610     0.739238     0.016650    Uiso  ? Li
   Li10       1.0     0.261022     0.250325     0.483537    Uiso  ? Li
   Li11       1.0     0.750421     0.249500     0.016519    Uiso  ? Li
   Li12       1.0     0.505336     0.250166     0.261527    Uiso  ? Li
   Li13       1.0     0.994640     0.749297     0.249994    Uiso  ? Li
   Li14       1.0     0.738273     0.749900     0.483402    Uiso  ? Li
   Li15       1.0     0.282857     0.005128     0.739238    Uiso  ? Li
   Li16       1.0     0.749639     0.017096     0.249778    Uiso  ? Li
   Li17       1.0     0.005125     0.504207     0.005778    Uiso  ? Li
   Sc1        1.0     0.249840     0.494052     0.250705    Uiso  ? Sc
   Sc2        1.0     0.747829     0.506210     0.745060    Uiso  ? Sc
   Sc3        1.0     0.003742     0.256837     0.751818    Uiso  ? Sc
   Sc4        1.0     0.494955     0.994737     0.005695    Uiso  ? Sc
   Sc5        1.0     0.994247     0.994721     0.483144    Uiso  ? Sc
   Cl1        1.0     0.251176     0.260572     0.249964    Uiso  ? Cl
   Cl2        1.0     0.741357     0.510426     0.509723    Uiso  ? Cl
   Cl3        1.0     0.508408     0.000878     0.765002    Uiso  ? Cl
   Cl4        1.0     0.998633     0.736728     0.013117    Uiso  ? Cl
   Cl5        1.0     0.254926     0.989003     0.990181    Uiso  ? Cl
   Cl6        1.0     0.750307     0.739824     0.758576    Uiso  ? Cl
   Cl7        1.0     0.488171     0.240414     0.494384    Uiso  ? Cl
   Cl8        1.0     0.008807     0.499194     0.243672    Uiso  ? Cl
   Cl9        1.0     0.496953     0.763358     0.516014    Uiso  ? Cl
   Cl10       1.0     0.754815     0.499142     0.987704    Uiso  ? Cl
   Cl11       1.0     0.983645     0.014270     0.734045    Uiso  ? Cl
   Cl12       1.0     0.995095     0.253871     0.981258    Uiso  ? Cl
   Cl13       1.0     0.491181     0.496941     0.255919    Uiso  ? Cl
   Cl14       1.0     0.238011    -0.001030     0.504420    Uiso  ? Cl
   Cl15       1.0     0.247269     0.767508     0.753434    Uiso  ? Cl
   Cl16       1.0     0.500476     0.000977     0.242862    Uiso  ? Cl
   Cl17       1.0     0.741059     0.259367     0.242075    Uiso  ? Cl
   Cl18       1.0     0.994047     0.496071     0.746257    Uiso  ? Cl
   Cl19       1.0     0.253725     0.501179     0.489810    Uiso  ? Cl
   Cl20       1.0     0.737229     0.995854     0.010439    Uiso  ? Cl
   Cl21       1.0     0.248207     0.505732     0.007554    Uiso  ? Cl
   Cl22       1.0     0.992728     0.996165     0.255288    Uiso  ? Cl
   Cl23       1.0     0.507860     0.503828     0.744637    Uiso  ? Cl
   Cl24       1.0     0.755059     0.990354     0.489088    Uiso  ? Cl
   Cl25       1.0     0.004563     0.238895     0.508410    Uiso  ? Cl
   Cl26       1.0     0.503668     0.756623     0.994997    Uiso  ? Cl
   Cl27       1.0     0.505744     0.236168     0.007490    Uiso  ? Cl
   Cl28       1.0     0.000814     0.761292     0.499364    Uiso  ? Cl
   Cl29       1.0     0.759659     0.263717     0.746839    Uiso  ? Cl
   Cl30       1.0     0.244342     0.735745     0.254553    Uiso  ? Cl
   Cl31       1.0     0.757547     0.732718     0.250220    Uiso  ? Cl
   Cl32       1.0     0.242268     0.245478     0.743616    Uiso  ? Cl
