
#======================================================================
# CRYSTAL DATA
#----------------------------------------------------------------------
data_VESTA_phase_1

_chemical_name_common                  '# Compound: Li17Sc5Cl32. Old comment: '
_cell_length_a                         10.303178
_cell_length_b                         10.217561
_cell_length_c                         10.397884
_cell_angle_alpha                      90.136688
_cell_angle_beta                       90.496254
_cell_angle_gamma                      90.019997
_cell_volume                           1094.575828
_space_group_name_H-M_alt              'P 1'
_space_group_IT_number                 1

loop_
_space_group_symop_operation_xyz
   'x, y, z'

loop_
   _atom_site_label
   _atom_site_occupancy
   _atom_site_fract_x
   _atom_site_fract_y
   _atom_site_fract_z
   _atom_site_adp_type
   _atom_site_U_iso_or_equiv
   _atom_site_type_symbol
   Li1        1.0     0.382808     0.371711     0.882977    Uiso  ? Li
   Li2        1.0     0.250207     0.760304     0.505509    Uiso  ? Li
   Li3        1.0     0.006002     0.760566     0.750455    Uiso  ? Li
   Li4        1.0     0.749859     0.494557     0.250328    Uiso  ? Li
   Li5        1.0     0.493797     0.005945     0.505866    Uiso  ? Li
   Li6        1.0     0.116380     0.915986     0.116074    Uiso  ? Li
   Li7        1.0     0.494560     0.494165     0.494929    Uiso  ? Li
   Li8        1.0     0.493720     0.750420     0.748831    Uiso  ? Li
   Li9        1.0     0.254385     0.731453     0.968752    Uiso  ? Li
   Li10       1.0     0.255395     0.241163     0.493845    Uiso  ? Li
   Li11       1.0     0.761020     0.250427     0.005217    Uiso  ? Li
   Li12       1.0     0.494250     0.260277     0.261207    Uiso  ? Li
   Li13       1.0     0.993967     0.728172     0.283519    Uiso  ? Li
   Li14       1.0     0.739064     0.750405     0.505437    Uiso  ? Li
   Li15       1.0     0.250537     0.994386     0.739179    Uiso  ? Li
   Li16       1.0    -0.005067     0.505703     0.005569    Uiso  ? Li
   Li17       1.0     0.015276     0.999115     0.506641    Uiso  ? Li
   Sc1        1.0     0.249551     0.494864     0.250362    Uiso  ? Sc
   Sc2        1.0     0.749438     0.504869     0.749714    Uiso  ? Sc
   Sc3        1.0     0.005368     0.240316     0.749972    Uiso  ? Sc
   Sc4        1.0     0.503813     0.993714     0.988513    Uiso  ? Sc
   Sc5        1.0     0.749896    -0.003999     0.256095    Uiso  ? Sc
   Cl1        1.0     0.250885     0.260742     0.250268    Uiso  ? Cl
   Cl2        1.0     0.740827     0.506247     0.510324    Uiso  ? Cl
   Cl3        1.0     0.502106     0.000748     0.756183    Uiso  ? Cl
   Cl4        1.0     0.018324     0.750362    -0.006519    Uiso  ? Cl
   Cl5        1.0     0.266698     0.007391     0.986520    Uiso  ? Cl
   Cl6        1.0     0.756112     0.741597     0.749867    Uiso  ? Cl
   Cl7        1.0     0.488149     0.246648     0.488891    Uiso  ? Cl
   Cl8        1.0     0.002384     0.498254     0.243180    Uiso  ? Cl
   Cl9        1.0     0.498005     0.755044     0.513234    Uiso  ? Cl
   Cl10       1.0     0.754474     0.495890     0.990200    Uiso  ? Cl
   Cl11       1.0     0.003600     0.004035     0.751060    Uiso  ? Cl
   Cl12       1.0     0.996973     0.254527     0.984648    Uiso  ? Cl
   Cl13       1.0     0.491959     0.501346     0.252918    Uiso  ? Cl
   Cl14       1.0     0.253451     0.998894     0.505835    Uiso  ? Cl
   Cl15       1.0     0.247539     0.754425     0.743599    Uiso  ? Cl
   Cl16       1.0     0.506584    -0.005121     0.235476    Uiso  ? Cl
   Cl17       1.0     0.743173     0.241017     0.244058    Uiso  ? Cl
   Cl18       1.0     0.992947     0.494332     0.751467    Uiso  ? Cl
   Cl19       1.0     0.251377     0.506256     0.484343    Uiso  ? Cl
   Cl20       1.0     0.746143    -0.003333     0.012064    Uiso  ? Cl
   Cl21       1.0     0.245069     0.500231     0.009952    Uiso  ? Cl
   Cl22       1.0     0.986210     0.002953     0.266953    Uiso  ? Cl
   Cl23       1.0     0.510304     0.502059     0.745315    Uiso  ? Cl
   Cl24       1.0     0.737138     0.997216     0.487655    Uiso  ? Cl
   Cl25       1.0     0.006642     0.240232     0.517436    Uiso  ? Cl
   Cl26       1.0     0.492619     0.758173     0.988375    Uiso  ? Cl
   Cl27       1.0     0.514925     0.237890     0.007989    Uiso  ? Cl
   Cl28       1.0     0.996798     0.762696     0.510752    Uiso  ? Cl
   Cl29       1.0     0.760367     0.259480     0.750871    Uiso  ? Cl
   Cl30       1.0     0.233024     0.744538     0.246326    Uiso  ? Cl
   Cl31       1.0     0.756787     0.752688     0.256848    Uiso  ? Cl
   Cl32       1.0     0.244178     0.249027     0.744922    Uiso  ? Cl
