
#======================================================================
# CRYSTAL DATA
#----------------------------------------------------------------------
data_VESTA_phase_1

_chemical_name_common                  '# Compound: Li17Sc5Cl32. Old comment: '
_cell_length_a                         10.327240
_cell_length_b                         10.227378
_cell_length_c                         10.310115
_cell_angle_alpha                      89.896660
_cell_angle_beta                       89.647087
_cell_angle_gamma                      89.691414
_cell_volume                           1088.922215
_space_group_name_H-M_alt              'P 1'
_space_group_IT_number                 1

loop_
_space_group_symop_operation_xyz
   'x, y, z'

loop_
   _atom_site_label
   _atom_site_occupancy
   _atom_site_fract_x
   _atom_site_fract_y
   _atom_site_fract_z
   _atom_site_adp_type
   _atom_site_U_iso_or_equiv
   _atom_site_type_symbol
   Li1        1.0     0.371878     0.372392     0.872627    Uiso  ? Li
   Li2        1.0     0.238989     0.760211     0.505682    Uiso  ? Li
   Li3        1.0     0.994162     0.750710     0.739671    Uiso  ? Li
   Li4        1.0     0.749588     0.505455     0.250557    Uiso  ? Li
   Li5        1.0     0.494462     0.006032     0.506636    Uiso  ? Li
   Li6        1.0     0.228464     0.016329     0.260560    Uiso  ? Li
   Li7        1.0     0.506021     0.749493     0.760742    Uiso  ? Li
   Li8        1.0     0.250078     0.750622     0.005418    Uiso  ? Li
   Li9        1.0     0.249874     0.504830     0.250847    Uiso  ? Li
   Li10       1.0     0.749345     0.505945     0.749830    Uiso  ? Li
   Li11       1.0     0.241544     0.256979     0.492712    Uiso  ? Li
   Li12       1.0     0.749709     0.250256     0.995323    Uiso  ? Li
   Li13       1.0     0.483571     0.261024     0.250428    Uiso  ? Li
   Li14       1.0     0.005178     0.750420     0.261600    Uiso  ? Li
   Li15       1.0     0.760989     0.750032     0.506746    Uiso  ? Li
   Li16       1.0     0.249588     0.994149     0.750397    Uiso  ? Li
   Li17       1.0     0.994543     0.005015     0.506146    Uiso  ? Li
   Sc1        1.0     0.495095     0.504269     0.495374    Uiso  ? Sc
   Sc2        1.0     0.994375     0.239451     0.749746    Uiso  ? Sc
   Sc3        1.0     0.494417     0.994264     0.994249    Uiso  ? Sc
   Sc4        1.0     0.755358     0.004286     0.252720    Uiso  ? Sc
   Sc5        1.0     0.995099     0.505119     0.006242    Uiso  ? Sc
   Cl1        1.0     0.255122     0.252084     0.261480    Uiso  ? Cl
   Cl2        1.0     0.734429     0.505772     0.491270    Uiso  ? Cl
   Cl3        1.0     0.495801    -0.001433     0.758598    Uiso  ? Cl
   Cl4        1.0     0.002804     0.740519     0.995512    Uiso  ? Cl
   Cl5        1.0     0.260443     0.001630     0.011034    Uiso  ? Cl
   Cl6        1.0     0.753224     0.737599     0.739540    Uiso  ? Cl
   Cl7        1.0     0.490580     0.262302     0.498493    Uiso  ? Cl
   Cl8        1.0     0.993142     0.504354     0.242926    Uiso  ? Cl
   Cl9        1.0     0.494167     0.748670     0.508283    Uiso  ? Cl
   Cl10       1.0     0.758404     0.495260     0.006696    Uiso  ? Cl
   Cl11       1.0     0.001591     0.003896     0.754878    Uiso  ? Cl
   Cl12       1.0    -0.000548     0.258253     0.994924    Uiso  ? Cl
   Cl13       1.0     0.500928     0.501899     0.256564    Uiso  ? Cl
   Cl14       1.0     0.256796     0.003190     0.500650    Uiso  ? Cl
   Cl15       1.0     0.244763     0.761209     0.753796    Uiso  ? Cl
   Cl16       1.0     0.506372     0.000630     0.245312    Uiso  ? Cl
   Cl17       1.0     0.739301     0.242596     0.242288    Uiso  ? Cl
   Cl18       1.0     0.001254     0.492006     0.761622    Uiso  ? Cl
   Cl19       1.0     0.257745     0.507840     0.494958    Uiso  ? Cl
   Cl20       1.0     0.739176    -0.001294     0.010510    Uiso  ? Cl
   Cl21       1.0     0.238096     0.504105     0.010884    Uiso  ? Cl
   Cl22       1.0     0.989428     0.004876     0.258984    Uiso  ? Cl
   Cl23       1.0     0.504982     0.504572     0.739518    Uiso  ? Cl
   Cl24       1.0     0.734239     0.000795     0.489228    Uiso  ? Cl
   Cl25       1.0     0.001759     0.245844     0.516733    Uiso  ? Cl
   Cl26       1.0     0.493535     0.759722     0.998341    Uiso  ? Cl
   Cl27       1.0     0.505951     0.239518     0.005574    Uiso  ? Cl
   Cl28       1.0     0.000331     0.766267     0.505022    Uiso  ? Cl
   Cl29       1.0     0.761371     0.259936     0.760677    Uiso  ? Cl
   Cl30       1.0     0.234807     0.757404     0.253865    Uiso  ? Cl
   Cl31       1.0     0.760167     0.762103     0.259416    Uiso  ? Cl
   Cl32       1.0     0.237513     0.240596     0.747175    Uiso  ? Cl
