
#======================================================================
# CRYSTAL DATA
#----------------------------------------------------------------------
data_VESTA_phase_1

_chemical_name_common                  '# Compound: Li17Sc5Cl32. Old comment: '
_cell_length_a                         10.241421
_cell_length_b                         10.361520
_cell_length_c                         10.369145
_cell_angle_alpha                      90.322067
_cell_angle_beta                       90.020813
_cell_angle_gamma                      90.399048
_cell_volume                           1100.295165
_space_group_name_H-M_alt              'P 1'
_space_group_IT_number                 1

loop_
_space_group_symop_operation_xyz
   'x, y, z'

loop_
   _atom_site_label
   _atom_site_occupancy
   _atom_site_fract_x
   _atom_site_fract_y
   _atom_site_fract_z
   _atom_site_adp_type
   _atom_site_U_iso_or_equiv
   _atom_site_type_symbol
   Li1        1.0     0.372241     0.383192     0.882898    Uiso  ? Li
   Li2        1.0     0.750337     0.761612     0.005594    Uiso  ? Li
   Li3        1.0     0.260829     0.728852     0.494555    Uiso  ? Li
   Li4        1.0     0.760526     0.505162     0.250256    Uiso  ? Li
   Li5        1.0     0.505209     0.994683     0.516397    Uiso  ? Li
   Li6        1.0     0.916438     0.127527     0.127887    Uiso  ? Li
   Li7        1.0     0.494424     0.505891     0.494434    Uiso  ? Li
   Li8        1.0     0.494552     0.771694     0.749709    Uiso  ? Li
   Li9        1.0     0.228156     0.494825     0.260900    Uiso  ? Li
   Li10       1.0     0.260703     0.271929     0.494124    Uiso  ? Li
   Li11       1.0     0.500811     0.996726     0.984071    Uiso  ? Li
   Li12       1.0     0.727359     0.250054     0.983595    Uiso  ? Li
   Li13       1.0     0.994975     0.728391     0.249831    Uiso  ? Li
   Li14       1.0     0.738807     0.749863     0.494017    Uiso  ? Li
   Li15       1.0     0.268990     0.993801     0.759012    Uiso  ? Li
   Li16       1.0     0.727527     0.971806     0.250231    Uiso  ? Li
   Li17       1.0     0.005320     0.505937     0.016433    Uiso  ? Li
   Sc1        1.0     0.249397     0.759899     0.001679    Uiso  ? Sc
   Sc2        1.0     0.749297     0.507545     0.744868    Uiso  ? Sc
   Sc3        1.0     0.005128     0.250293     0.749327    Uiso  ? Sc
   Sc4        1.0     0.494543     0.249770     0.250430    Uiso  ? Sc
   Sc5        1.0     0.996230     0.990238     0.501846    Uiso  ? Sc
   Cl1        1.0     0.258693     0.256976     0.254651    Uiso  ? Cl
   Cl2        1.0     0.744438     0.511078     0.509783    Uiso  ? Cl
   Cl3        1.0     0.497949     0.001499     0.748363    Uiso  ? Cl
   Cl4        1.0     0.006468     0.744957     0.002229    Uiso  ? Cl
   Cl5        1.0     0.251157     0.992727     0.994370    Uiso  ? Cl
   Cl6        1.0     0.749249     0.741019     0.756848    Uiso  ? Cl
   Cl7        1.0     0.499482     0.245089     0.488415    Uiso  ? Cl
   Cl8        1.0     0.992225     0.498752     0.243064    Uiso  ? Cl
   Cl9        1.0     0.498978     0.755506     0.511350    Uiso  ? Cl
   Cl10       1.0     0.754884     0.500235     0.985139    Uiso  ? Cl
   Cl11       1.0    -0.008925     0.011906     0.744722    Uiso  ? Cl
   Cl12       1.0     0.003127     0.265458     0.983297    Uiso  ? Cl
   Cl13       1.0     0.514051     0.485871     0.254428    Uiso  ? Cl
   Cl14       1.0     0.238119    -0.006197     0.514383    Uiso  ? Cl
   Cl15       1.0     0.251158     0.752719     0.762284    Uiso  ? Cl
   Cl16       1.0     0.499754     0.011915     0.255382    Uiso  ? Cl
   Cl17       1.0     0.744951     0.254198     0.232189    Uiso  ? Cl
   Cl18       1.0     0.994682     0.489690     0.743454    Uiso  ? Cl
   Cl19       1.0     0.261061     0.501702     0.490417    Uiso  ? Cl
   Cl20       1.0     0.751436     0.006355     0.017369    Uiso  ? Cl
   Cl21       1.0     0.244773     0.514866     0.008717    Uiso  ? Cl
   Cl22       1.0     0.002172     0.987590     0.267249    Uiso  ? Cl
   Cl23       1.0     0.510510     0.500016     0.743883    Uiso  ? Cl
   Cl24       1.0     0.755833     0.989104     0.490202    Uiso  ? Cl
   Cl25       1.0     0.003574     0.235605     0.508922    Uiso  ? Cl
   Cl26       1.0     0.493441     0.759772     0.993684    Uiso  ? Cl
   Cl27       1.0     0.495865     0.240159     0.006813    Uiso  ? Cl
   Cl28       1.0     0.000050     0.756506     0.500528    Uiso  ? Cl
   Cl29       1.0     0.759163     0.261662     0.748087    Uiso  ? Cl
   Cl30       1.0     0.242343     0.743509     0.240790    Uiso  ? Cl
   Cl31       1.0     0.755346     0.742624     0.244867    Uiso  ? Cl
   Cl32       1.0     0.243192     0.247441     0.742031    Uiso  ? Cl
