
#======================================================================
# CRYSTAL DATA
#----------------------------------------------------------------------
data_VESTA_phase_1

_chemical_name_common                  '# Compound: Li17Sc5Cl32. Old comment: '
_cell_length_a                         10.344213
_cell_length_b                         10.360583
_cell_length_c                         10.267502
_cell_angle_alpha                      89.479317
_cell_angle_beta                       90.206512
_cell_angle_gamma                      89.603294
_cell_volume                           1100.310372
_space_group_name_H-M_alt              'P 1'
_space_group_IT_number                 1

loop_
_space_group_symop_operation_xyz
   'x, y, z'

loop_
   _atom_site_label
   _atom_site_occupancy
   _atom_site_fract_x
   _atom_site_fract_y
   _atom_site_fract_z
   _atom_site_adp_type
   _atom_site_U_iso_or_equiv
   _atom_site_type_symbol
   Li1        1.0     0.372005     0.383285     0.883284    Uiso  ? Li
   Li2        1.0     0.260807     0.005607     0.238499    Uiso  ? Li
   Li3        1.0     0.751193     0.750545     0.005779    Uiso  ? Li
   Li4        1.0     0.005770     0.739023     0.760554    Uiso  ? Li
   Li5        1.0     0.505823     0.015305     0.494777    Uiso  ? Li
   Li6        1.0     0.626737     0.626855     0.320898    Uiso  ? Li
   Li7        1.0     0.494784     0.461597     0.505450    Uiso  ? Li
   Li8        1.0     0.239012     0.760748     0.005982    Uiso  ? Li
   Li9        1.0     0.745203     0.502075     0.730660    Uiso  ? Li
   Li10       1.0     0.261140     0.250372     0.494387    Uiso  ? Li
   Li11       1.0     0.494535     0.995011     0.005785    Uiso  ? Li
   Li12       1.0     0.505155     0.239669     0.261072    Uiso  ? Li
   Li13       1.0     0.005150     0.739453     0.238544    Uiso  ? Li
   Li14       1.0     0.761132     0.750646     0.516182    Uiso  ? Li
   Li15       1.0     0.260691     0.995581     0.771938    Uiso  ? Li
   Li16       1.0     0.739038     0.005527     0.249340    Uiso  ? Li
   Li17       1.0    -0.005270     0.505785     0.005988    Uiso  ? Li
   Sc1        1.0     0.494655     0.750687     0.749678    Uiso  ? Sc
   Sc2        1.0     0.238802     0.494829     0.260413    Uiso  ? Sc
   Sc3        1.0     0.001218     0.259374     0.749177    Uiso  ? Sc
   Sc4        1.0     0.749377     0.249932     0.005752    Uiso  ? Sc
   Sc5        1.0     0.999863     0.997328     0.494078    Uiso  ? Sc
   Cl1        1.0     0.248199     0.256259     0.252111    Uiso  ? Cl
   Cl2        1.0     0.726136     0.521787     0.496092    Uiso  ? Cl
   Cl3        1.0     0.495080     0.988380     0.746689    Uiso  ? Cl
   Cl4        1.0     0.993948     0.742734     0.989692    Uiso  ? Cl
   Cl5        1.0     0.262136     0.990092     0.004466    Uiso  ? Cl
   Cl6        1.0     0.742005     0.744422     0.756284    Uiso  ? Cl
   Cl7        1.0     0.491641     0.239228     0.498126    Uiso  ? Cl
   Cl8        1.0     0.005098     0.504821     0.248244    Uiso  ? Cl
   Cl9        1.0     0.510396     0.766001     0.509009    Uiso  ? Cl
   Cl10       1.0     0.755094     0.488714     0.989397    Uiso  ? Cl
   Cl11       1.0     0.006334     0.012181     0.743363    Uiso  ? Cl
   Cl12       1.0     0.993106     0.249301     0.990347    Uiso  ? Cl
   Cl13       1.0     0.480999     0.483134     0.248940    Uiso  ? Cl
   Cl14       1.0     0.240464     0.008379     0.500968    Uiso  ? Cl
   Cl15       1.0     0.256818     0.755486     0.757562    Uiso  ? Cl
   Cl16       1.0     0.498756     0.006250     0.253737    Uiso  ? Cl
   Cl17       1.0     0.749543     0.246430     0.238270    Uiso  ? Cl
   Cl18       1.0     0.993619     0.493307     0.748591    Uiso  ? Cl
   Cl19       1.0     0.255104     0.489897     0.494784    Uiso  ? Cl
   Cl20       1.0     0.744275     0.012158     0.001426    Uiso  ? Cl
   Cl21       1.0     0.237777     0.508962     0.011657    Uiso  ? Cl
   Cl22       1.0     0.011455     0.992720     0.260424    Uiso  ? Cl
   Cl23       1.0     0.500151     0.511120     0.743907    Uiso  ? Cl
   Cl24       1.0     0.763314     0.997860     0.493770    Uiso  ? Cl
   Cl25       1.0    -0.000859     0.242474     0.509076    Uiso  ? Cl
   Cl26       1.0     0.510240     0.754121     0.988563    Uiso  ? Cl
   Cl27       1.0     0.511176     0.244285    -0.001001    Uiso  ? Cl
   Cl28       1.0     0.999155     0.763292     0.520959    Uiso  ? Cl
   Cl29       1.0     0.761171     0.254169     0.755485    Uiso  ? Cl
   Cl30       1.0     0.243628     0.736248     0.247343    Uiso  ? Cl
   Cl31       1.0     0.768694     0.769681     0.242454    Uiso  ? Cl
   Cl32       1.0     0.238525     0.246873     0.750049    Uiso  ? Cl
