
#======================================================================
# CRYSTAL DATA
#----------------------------------------------------------------------
data_VESTA_phase_1

_chemical_name_common                  '# Compound: Li17Sc5Cl32. Old comment: '
_cell_length_a                         10.300930
_cell_length_b                         10.274176
_cell_length_c                         10.378016
_cell_angle_alpha                      89.779289
_cell_angle_beta                       89.488068
_cell_angle_gamma                      89.765182
_cell_volume                           1098.281313
_space_group_name_H-M_alt              'P 1'
_space_group_IT_number                 1

loop_
_space_group_symop_operation_xyz
   'x, y, z'

loop_
   _atom_site_label
   _atom_site_occupancy
   _atom_site_fract_x
   _atom_site_fract_y
   _atom_site_fract_z
   _atom_site_adp_type
   _atom_site_U_iso_or_equiv
   _atom_site_type_symbol
   Li1        1.0     0.372142     0.383040     0.872823    Uiso  ? Li
   Li2        1.0     0.260976     0.994681     0.238675    Uiso  ? Li
   Li3        1.0    -0.005768     0.749857     0.761361    Uiso  ? Li
   Li4        1.0     0.750520     0.505497     0.271701    Uiso  ? Li
   Li5        1.0     0.505385     0.005886     0.494541    Uiso  ? Li
   Li6        1.0     0.626913     0.827630     0.128057    Uiso  ? Li
   Li7        1.0     0.505266     0.482591     0.494517    Uiso  ? Li
   Li8        1.0     0.238603     0.760983    -0.004848    Uiso  ? Li
   Li9        1.0     0.749393     0.505313     0.728139    Uiso  ? Li
   Li10       1.0     0.271205     0.250515     0.494272    Uiso  ? Li
   Li11       1.0     0.482872     0.016401     0.983695    Uiso  ? Li
   Li12       1.0     0.494715     0.249737     0.261265    Uiso  ? Li
   Li13       1.0     0.005027     0.749655     0.217116    Uiso  ? Li
   Li14       1.0     0.749565     0.738838     0.495559    Uiso  ? Li
   Li15       1.0     0.250266     0.994558     0.772344    Uiso  ? Li
   Li16       1.0     0.760946     0.016829     0.261163    Uiso  ? Li
   Li17       1.0     0.004800     0.516275     0.005807    Uiso  ? Li
   Sc1        1.0     0.495460     0.751052     0.743673    Uiso  ? Sc
   Sc2        1.0     0.250016     0.500029     0.258466    Uiso  ? Sc
   Sc3        1.0     0.004927     0.260608     0.749906    Uiso  ? Sc
   Sc4        1.0     0.749717     0.250019     0.005836    Uiso  ? Sc
   Sc5        1.0     0.995061     0.994669     0.494923    Uiso  ? Sc
   Cl1        1.0     0.254395     0.256809     0.254222    Uiso  ? Cl
   Cl2        1.0     0.738318     0.505217     0.498811    Uiso  ? Cl
   Cl3        1.0     0.490731     0.992097     0.745195    Uiso  ? Cl
   Cl4        1.0     0.003124     0.745738     0.988223    Uiso  ? Cl
   Cl5        1.0     0.255670     0.997593     0.004823    Uiso  ? Cl
   Cl6        1.0     0.736702     0.743857     0.747138    Uiso  ? Cl
   Cl7        1.0     0.496428     0.239042     0.492451    Uiso  ? Cl
   Cl8        1.0     0.009569     0.504791     0.245282    Uiso  ? Cl
   Cl9        1.0     0.502451     0.760367     0.509233    Uiso  ? Cl
   Cl10       1.0     0.757482     0.486396     0.006878    Uiso  ? Cl
   Cl11       1.0     0.001767     0.011068     0.742970    Uiso  ? Cl
   Cl12       1.0     0.993640     0.244620     0.988862    Uiso  ? Cl
   Cl13       1.0     0.491558     0.496844     0.253737    Uiso  ? Cl
   Cl14       1.0     0.237219     0.006137     0.495107    Uiso  ? Cl
   Cl15       1.0     0.254466     0.755235     0.754377    Uiso  ? Cl
   Cl16       1.0     0.505745    -0.004647     0.248685    Uiso  ? Cl
   Cl17       1.0     0.746731     0.254444     0.241540    Uiso  ? Cl
   Cl18       1.0     0.994655     0.494365     0.753955    Uiso  ? Cl
   Cl19       1.0     0.255578     0.490914     0.490194    Uiso  ? Cl
   Cl20       1.0     0.738845     0.007704     0.015810    Uiso  ? Cl
   Cl21       1.0     0.243880     0.502587     0.013323    Uiso  ? Cl
   Cl22       1.0     0.004290     0.995951     0.261526    Uiso  ? Cl
   Cl23       1.0     0.503118     0.508171     0.738268    Uiso  ? Cl
   Cl24       1.0     0.758215    -0.000788     0.494786    Uiso  ? Cl
   Cl25       1.0    -0.002475     0.241948     0.513084    Uiso  ? Cl
   Cl26       1.0     0.485762     0.750472     0.982326    Uiso  ? Cl
   Cl27       1.0     0.509765     0.250032     0.000957    Uiso  ? Cl
   Cl28       1.0     0.995552     0.762121     0.523443    Uiso  ? Cl
   Cl29       1.0     0.761343     0.251673     0.762687    Uiso  ? Cl
   Cl30       1.0     0.242608     0.742334     0.244105    Uiso  ? Cl
   Cl31       1.0     0.772988     0.747898     0.263882    Uiso  ? Cl
   Cl32       1.0     0.241872     0.243346     0.745128    Uiso  ? Cl
