
#======================================================================
# CRYSTAL DATA
#----------------------------------------------------------------------
data_VESTA_phase_1

_chemical_name_common                  '# Compound: Li17Sc5Cl32. Old comment: '
_cell_length_a                         10.244895
_cell_length_b                         10.363681
_cell_length_c                         10.354582
_cell_angle_alpha                      91.057747
_cell_angle_beta                       90.338005
_cell_angle_gamma                      89.900566
_cell_volume                           1099.187960
_space_group_name_H-M_alt              'P 1'
_space_group_IT_number                 1

loop_
_space_group_symop_operation_xyz
   'x, y, z'

loop_
   _atom_site_label
   _atom_site_occupancy
   _atom_site_fract_x
   _atom_site_fract_y
   _atom_site_fract_z
   _atom_site_adp_type
   _atom_site_U_iso_or_equiv
   _atom_site_type_symbol
   Li1        1.0     0.383259     0.382963     0.872033    Uiso  ? Li
   Li2        1.0     0.239704     0.014162     0.256318    Uiso  ? Li
   Li3        1.0     0.749702     0.749532     0.993940    Uiso  ? Li
   Li4        1.0     0.994582     0.749893     0.728970    Uiso  ? Li
   Li5        1.0     0.494441     0.994246     0.516646    Uiso  ? Li
   Li6        1.0     0.082633     0.372300     0.372237    Uiso  ? Li
   Li7        1.0     0.505452     0.760730     0.749098    Uiso  ? Li
   Li8        1.0     0.260986     0.516909     0.239406    Uiso  ? Li
   Li9        1.0     0.749800     0.505451     0.739040    Uiso  ? Li
   Li10       1.0     0.272590     0.238685     0.505219    Uiso  ? Li
   Li11       1.0     0.493865     0.995203     0.982990    Uiso  ? Li
   Li12       1.0     0.482972     0.260306     0.260567    Uiso  ? Li
   Li13       1.0     0.004892     0.739602     0.272395    Uiso  ? Li
   Li14       1.0     0.750219     0.738955     0.516510    Uiso  ? Li
   Li15       1.0     0.260545     0.994442     0.738928    Uiso  ? Li
   Li16       1.0     0.005243     0.505226     0.004898    Uiso  ? Li
   Li17       1.0     0.016274     0.983412     0.505515    Uiso  ? Li
   Sc1        1.0     0.503750     0.499124     0.493211    Uiso  ? Sc
   Sc2        1.0     0.249710     0.756966     0.994864    Uiso  ? Sc
   Sc3        1.0     0.004726     0.249109     0.749982    Uiso  ? Sc
   Sc4        1.0     0.749654     0.260623     0.005559    Uiso  ? Sc
   Sc5        1.0     0.749811     0.994731     0.260564    Uiso  ? Sc
   Cl1        1.0     0.244652     0.247628     0.263627    Uiso  ? Cl
   Cl2        1.0     0.740982     0.500930     0.503044    Uiso  ? Cl
   Cl3        1.0     0.492326     0.991489     0.749005    Uiso  ? Cl
   Cl4        1.0     0.005328     0.745222     0.988051    Uiso  ? Cl
   Cl5        1.0     0.252213     0.993568     0.004172    Uiso  ? Cl
   Cl6        1.0     0.752785     0.739445     0.760641    Uiso  ? Cl
   Cl7        1.0     0.505199     0.258176     0.497507    Uiso  ? Cl
   Cl8        1.0     0.013546     0.516103     0.231959    Uiso  ? Cl
   Cl9        1.0     0.505760     0.738568     0.505818    Uiso  ? Cl
   Cl10       1.0     0.752224     0.491944     0.997976    Uiso  ? Cl
   Cl11       1.0     0.010456     0.010739     0.745410    Uiso  ? Cl
   Cl12       1.0     0.993354     0.251308     0.993964    Uiso  ? Cl
   Cl13       1.0     0.496393     0.492803     0.258121    Uiso  ? Cl
   Cl14       1.0     0.257164     0.005563     0.496350    Uiso  ? Cl
   Cl15       1.0     0.242218     0.755043     0.757626    Uiso  ? Cl
   Cl16       1.0     0.507451     0.012752     0.249569    Uiso  ? Cl
   Cl17       1.0     0.754962     0.241676     0.243325    Uiso  ? Cl
   Cl18       1.0     0.994197     0.484544     0.756808    Uiso  ? Cl
   Cl19       1.0     0.257863     0.487874     0.490525    Uiso  ? Cl
   Cl20       1.0     0.745339     0.011209     0.011447    Uiso  ? Cl
   Cl21       1.0     0.250464     0.514603     0.000833    Uiso  ? Cl
   Cl22       1.0     0.989206     0.992249     0.263172    Uiso  ? Cl
   Cl23       1.0     0.505967     0.507802     0.736992    Uiso  ? Cl
   Cl24       1.0     0.738057     0.991397     0.491839    Uiso  ? Cl
   Cl25       1.0     0.992824     0.233460     0.515845    Uiso  ? Cl
   Cl26       1.0     0.491543     0.756285     0.989449    Uiso  ? Cl
   Cl27       1.0     0.509765     0.245249     0.006310    Uiso  ? Cl
   Cl28       1.0     0.983597     0.756196     0.502809    Uiso  ? Cl
   Cl29       1.0     0.757670     0.244654     0.765996    Uiso  ? Cl
   Cl30       1.0     0.245606     0.761443     0.233150    Uiso  ? Cl
   Cl31       1.0     0.750636     0.762794     0.230186    Uiso  ? Cl
   Cl32       1.0     0.244442     0.244710     0.749583    Uiso  ? Cl
