
#======================================================================
# CRYSTAL DATA
#----------------------------------------------------------------------
data_VESTA_phase_1

_chemical_name_common                  '# Compound: Li17Sc5Cl32. Old comment: '
_cell_length_a                         10.280295
_cell_length_b                         10.313313
_cell_length_c                         10.287196
_cell_angle_alpha                      90.164062
_cell_angle_beta                       90.181519
_cell_angle_gamma                      90.058784
_cell_volume                           1090.678219
_space_group_name_H-M_alt              'P 1'
_space_group_IT_number                 1

loop_
_space_group_symop_operation_xyz
   'x, y, z'

loop_
   _atom_site_label
   _atom_site_occupancy
   _atom_site_fract_x
   _atom_site_fract_y
   _atom_site_fract_z
   _atom_site_adp_type
   _atom_site_U_iso_or_equiv
   _atom_site_type_symbol
   Li1        1.0     0.372539     0.372285     0.883106    Uiso  ? Li
   Li2        1.0     0.505930     0.750545     0.251368    Uiso  ? Li
   Li3        1.0     0.260625     0.739342     0.516742    Uiso  ? Li
   Li4        1.0     0.750776     0.494940     0.250769    Uiso  ? Li
   Li5        1.0     0.505863     0.015095     0.505814    Uiso  ? Li
   Li6        1.0     0.772397     0.771912     0.005974    Uiso  ? Li
   Li7        1.0     0.504776     0.472669     0.505248    Uiso  ? Li
   Li8        1.0     0.494078     0.750429     0.749492    Uiso  ? Li
   Li9        1.0     0.237884     0.760931     0.983332    Uiso  ? Li
   Li10       1.0     0.260779     0.249980     0.494207    Uiso  ? Li
   Li11       1.0     0.760893     0.259947     0.016514    Uiso  ? Li
   Li12       1.0     0.505982     0.250101     0.261413    Uiso  ? Li
   Li13       1.0    -0.002476     0.755475     0.242802    Uiso  ? Li
   Li14       1.0     0.749539     0.750475     0.504536    Uiso  ? Li
   Li15       1.0     0.250446     0.983368     0.750992    Uiso  ? Li
   Li16       1.0     0.758798     0.034722     0.250307    Uiso  ? Li
   Li17       1.0     0.005589     0.516379     0.005540    Uiso  ? Li
   Sc1        1.0     0.249666     0.494616     0.250710    Uiso  ? Sc
   Sc2        1.0     0.750136     0.505662     0.749865    Uiso  ? Sc
   Sc3        1.0     0.005281     0.249932     0.760920    Uiso  ? Sc
   Sc4        1.0     0.495027     0.005446     0.995040    Uiso  ? Sc
   Sc5        1.0     0.994797     0.994781     0.494560    Uiso  ? Sc
   Cl1        1.0     0.259539     0.262561     0.251792    Uiso  ? Cl
   Cl2        1.0     0.744173     0.510149     0.511651    Uiso  ? Cl
   Cl3        1.0     0.499371    -0.000592     0.757095    Uiso  ? Cl
   Cl4        1.0     0.002459     0.746977     0.010801    Uiso  ? Cl
   Cl5        1.0     0.261338    -0.003131     0.995090    Uiso  ? Cl
   Cl6        1.0     0.745713     0.741784     0.755406    Uiso  ? Cl
   Cl7        1.0     0.492476     0.241804     0.495580    Uiso  ? Cl
   Cl8        1.0     0.011375     0.506898     0.248431    Uiso  ? Cl
   Cl9        1.0     0.502476     0.766350     0.501221    Uiso  ? Cl
   Cl10       1.0     0.755584     0.505899     0.991791    Uiso  ? Cl
   Cl11       1.0    -0.000961     0.010210     0.744903    Uiso  ? Cl
   Cl12       1.0     0.000607     0.262645     0.992180    Uiso  ? Cl
   Cl13       1.0     0.496003     0.504759     0.259065    Uiso  ? Cl
   Cl14       1.0     0.239349    -0.002777     0.507149    Uiso  ? Cl
   Cl15       1.0     0.262071     0.752082     0.750094    Uiso  ? Cl
   Cl16       1.0     0.509171     0.000473     0.242610    Uiso  ? Cl
   Cl17       1.0     0.743464     0.266176     0.244981    Uiso  ? Cl
   Cl18       1.0     0.993918     0.493407     0.748846    Uiso  ? Cl
   Cl19       1.0     0.259490     0.498996     0.492075    Uiso  ? Cl
   Cl20       1.0     0.739329     0.007020     0.006885    Uiso  ? Cl
   Cl21       1.0     0.250690     0.514304     0.009449    Uiso  ? Cl
   Cl22       1.0     0.994265    -0.000285     0.262402    Uiso  ? Cl
   Cl23       1.0     0.510055     0.500756     0.746492    Uiso  ? Cl
   Cl24       1.0     0.756382     0.993684     0.496818    Uiso  ? Cl
   Cl25       1.0     0.004834     0.239508     0.514741    Uiso  ? Cl
   Cl26       1.0     0.506158     0.763849     0.003670    Uiso  ? Cl
   Cl27       1.0     0.509439     0.244668     0.008775    Uiso  ? Cl
   Cl28       1.0     0.001008     0.759481     0.499958    Uiso  ? Cl
   Cl29       1.0     0.760412     0.262948     0.756628    Uiso  ? Cl
   Cl30       1.0     0.257200     0.738445     0.257330    Uiso  ? Cl
   Cl31       1.0     0.749812     0.736843     0.251247    Uiso  ? Cl
   Cl32       1.0     0.243473     0.245076     0.744592    Uiso  ? Cl
