
#======================================================================
# CRYSTAL DATA
#----------------------------------------------------------------------
data_VESTA_phase_1

_chemical_name_common                  '# Compound: Li17Sc5Cl32. Old comment: '
_cell_length_a                         10.332171
_cell_length_b                         10.324660
_cell_length_c                         10.248178
_cell_angle_alpha                      90.049629
_cell_angle_beta                       89.990135
_cell_angle_gamma                      89.550018
_cell_volume                           1093.202086
_space_group_name_H-M_alt              'P 1'
_space_group_IT_number                 1

loop_
_space_group_symop_operation_xyz
   'x, y, z'

loop_
   _atom_site_label
   _atom_site_occupancy
   _atom_site_fract_x
   _atom_site_fract_y
   _atom_site_fract_z
   _atom_site_adp_type
   _atom_site_U_iso_or_equiv
   _atom_site_type_symbol
   Li1        1.0     0.382969     0.372416     0.883201    Uiso  ? Li
   Li2        1.0     0.249737     0.750927     0.505819    Uiso  ? Li
   Li3        1.0     0.005894     0.750370     0.760423    Uiso  ? Li
   Li4        1.0     0.749754     0.505711     0.250022    Uiso  ? Li
   Li5        1.0     0.493842     0.005722     0.505895    Uiso  ? Li
   Li6        1.0     0.127672     0.127326     0.338081    Uiso  ? Li
   Li7        1.0     0.499928     0.495253     0.495465    Uiso  ? Li
   Li8        1.0     0.483132     0.750394     0.749461    Uiso  ? Li
   Li9        1.0     0.238986     0.760959     0.993866    Uiso  ? Li
   Li10       1.0     0.272490     0.261179     0.516574    Uiso  ? Li
   Li11       1.0     0.751048     0.249868     0.004668    Uiso  ? Li
   Li12       1.0     0.505623     0.260843     0.261479    Uiso  ? Li
   Li13       1.0     0.001915     0.742874     0.240053    Uiso  ? Li
   Li14       1.0     0.749712     0.750044     0.504980    Uiso  ? Li
   Li15       1.0     0.249843     0.994391     0.749774    Uiso  ? Li
   Li16       1.0     0.005291     0.505489     0.004862    Uiso  ? Li
   Li17       1.0     0.983433     0.983387     0.516969    Uiso  ? Li
   Sc1        1.0     0.250441     0.505676     0.249966    Uiso  ? Sc
   Sc2        1.0     0.749622     0.505229     0.749665    Uiso  ? Sc
   Sc3        1.0     0.004786     0.239514     0.750315    Uiso  ? Sc
   Sc4        1.0     0.489174     0.993196     0.993001    Uiso  ? Sc
   Sc5        1.0     0.750093     0.994591     0.249919    Uiso  ? Sc
   Cl1        1.0     0.265093     0.266659     0.244879    Uiso  ? Cl
   Cl2        1.0     0.741136     0.506758     0.505944    Uiso  ? Cl
   Cl3        1.0     0.494104     0.001249     0.755883    Uiso  ? Cl
   Cl4        1.0     0.008048     0.736992     0.995724    Uiso  ? Cl
   Cl5        1.0     0.257194     0.001808     0.999600    Uiso  ? Cl
   Cl6        1.0     0.757263     0.738287     0.749968    Uiso  ? Cl
   Cl7        1.0     0.495612     0.247897     0.493611    Uiso  ? Cl
   Cl8        1.0     0.009279     0.500105     0.245312    Uiso  ? Cl
   Cl9        1.0     0.497427     0.757537     0.514512    Uiso  ? Cl
   Cl10       1.0     0.755287     0.490969     0.991565    Uiso  ? Cl
   Cl11       1.0     0.000132     0.005974     0.752566    Uiso  ? Cl
   Cl12       1.0     0.996030     0.256971     0.984507    Uiso  ? Cl
   Cl13       1.0     0.495300     0.499549     0.251864    Uiso  ? Cl
   Cl14       1.0     0.247049     0.007740     0.496581    Uiso  ? Cl
   Cl15       1.0     0.244021     0.760210     0.747351    Uiso  ? Cl
   Cl16       1.0     0.506708    -0.000862     0.242928    Uiso  ? Cl
   Cl17       1.0     0.747757     0.236937     0.243877    Uiso  ? Cl
   Cl18       1.0     0.992559     0.489061     0.742475    Uiso  ? Cl
   Cl19       1.0     0.255863     0.501382     0.489922    Uiso  ? Cl
   Cl20       1.0     0.736511    -0.002460     0.006729    Uiso  ? Cl
   Cl21       1.0     0.249784     0.508438     0.007496    Uiso  ? Cl
   Cl22       1.0     0.985966     0.987141     0.246847    Uiso  ? Cl
   Cl23       1.0     0.511069     0.503392     0.746571    Uiso  ? Cl
   Cl24       1.0     0.741977     0.996882     0.488304    Uiso  ? Cl
   Cl25       1.0     0.011140     0.236680     0.507233    Uiso  ? Cl
   Cl26       1.0     0.489427     0.761174     0.991229    Uiso  ? Cl
   Cl27       1.0     0.510891     0.236399     0.007804    Uiso  ? Cl
   Cl28       1.0     0.998380     0.757928     0.507336    Uiso  ? Cl
   Cl29       1.0     0.761685     0.260378     0.747374    Uiso  ? Cl
   Cl30       1.0     0.243255     0.741659     0.253341    Uiso  ? Cl
   Cl31       1.0     0.755470     0.754646     0.255447    Uiso  ? Cl
   Cl32       1.0     0.243199     0.247159     0.749765    Uiso  ? Cl
