LAMMPS (7 Aug 2019)

# Input written to comply with LAMMPS 2017-08-11 00:00:00

# Atomic Configuration
units           metal
boundary        p p p
box             tilt large
atom_style      charge
read_data       monoclinic_7x7x7.lmp
  triclinic box = (0 0 0) to (71.9621 72.1932 72.0097) with tilt (-0.0740679 -0.228135 -0.206434)
  reading atoms ...
  18522 atoms
group           lithium type 1
5831 atoms in group lithium
group           scandium type 2
1715 atoms in group scandium
group           chloride type 3
10976 atoms in group chloride
variable        T1 equal 300
variable        dt equal 0.001

# Potential Setup
pair_style      buck/coul/long 12.0
pair_coeff      * * 0.0 1.0 0.0
pair_coeff      1 1    360.530000  0.161000   0.000000 # Li Li
pair_coeff      1 3    421.040000  0.344000   0.000000 # Li Cl
pair_coeff      3 3   1227.200000  0.321000  14.530000 # Cl Cl
pair_coeff      2 3  12131.350000  0.250700   0.000000 # Sc Cl

kspace_style    pppm 1e-05

# General Setup
timestep        0.001

# Thermodynamic Information Output
thermo_style    custom step temp epair emol etotal press lx ly lz fmax cpu cpuremain
thermo          1000

# Intial Atom Velocity
velocity        all create 300 927914 dist gaussian rot yes

# Stage 0: npt_equilibriation
restart         0
fix             int all npt aniso 1.0 1.0 1 temp 300 300 $(100*dt)
fix             int all npt aniso 1.0 1.0 1 temp 300 300 0.10000000000000000555
run             50000
PPPM initialization ...
  G vector (1/distance) = 0.266277
  grid = 64 64 64
  stencil order = 5
  estimated absolute RMS force accuracy = 0.000166011
  estimated relative force accuracy = 1.15288e-05
  3d grid and FFT values/proc = 6900 1792
  update every 1 steps, delay 10 steps, check yes
Step Temp E_pair E_mol TotEng Press Lx Ly Lz Fmax CPU CPULeft
0          300      -125257            0   -124538.79   -734.32006    71.962067    72.193154    72.009717     2.700585            0            0
Averages over the last 26 of 51 rows, steps 25000 to 50000:
Temp E_pair E_mol TotEng Press Lx Ly Lz Fmax
299.97 -129629 0 -128911 36.6745 75.7133 78.446 77.4296 3.10622
Loop time of 206.972 on 160 procs for 50000 steps with 18522 atoms

# Stage 1: nvt_equilibriation
unfix           int
restart         0
fix             int all nvt temp 300 300 $(100*dt)
fix             int all nvt temp 300 300 0.10000000000000000555
run             6000000
PPPM initialization ...
  G vector (1/distance) = 0.269185
  grid = 72 72 72
  stencil order = 5
  estimated absolute RMS force accuracy = 0.000120468
  estimated relative force accuracy = 8.36603e-06
  3d grid and FFT values/proc = 8800 2880
Step Temp E_pair E_mol TotEng Press Lx Ly Lz Fmax CPU CPULeft
50000    300.33776   -129653.96            0   -128934.94    42.939165    75.770722    78.642132    77.324867    2.7814934            0            0
Averages over the last 3001 of 6001 rows, steps 3050000 to 6050000:
Temp E_pair E_mol TotEng Press Lx Ly Lz Fmax
299.993 -129811 0 -129093 -1713.59 75.7707 78.6421 77.3249 3.00623
Loop time of 24313.8 on 160 procs for 6000000 steps with 18522 atoms

# Stage 2: main_nvt_simulation
unfix           int
compute         lithiummsd lithium msd com yes
compute         scandiummsd scandium msd com yes
compute         chloridemsd chloride msd com yes
fix             lithiummsdt lithium ave/time 1 1 1000 c_lithiummsd[4] file monoclinic_7x7x7_300_li.txt
fix             scandiummymsdt scandium ave/time 1 1 1000 c_scandiummsd[4] file monoclinic_7x7x7_300_sc.txt
fix             chloridemymsdt chloride ave/time 1 1 1000 c_chloridemsd[4] file monoclinic_7x7x7_300_cl.txt
dump            atom_info all custom 1000 monoclinic_7x7x7_300.lammpstrj element x y z q id type vx vy vz
dump_modify     atom_info append yes
dump_modify     atom_info sort id
dump_modify     atom_info element Li Sc Cl
restart         0
fix             int all nvt temp 300 300 $(100*dt)
fix             int all nvt temp 300 300 0.10000000000000000555
run             10000000
PPPM initialization ...
  G vector (1/distance) = 0.269185
  grid = 72 72 72
  stencil order = 5
  estimated absolute RMS force accuracy = 0.000120468
  estimated relative force accuracy = 8.36603e-06
  3d grid and FFT values/proc = 8800 2880
Step Temp E_pair E_mol TotEng Press Lx Ly Lz Fmax CPU CPULeft
6050000    299.52895   -129818.62            0   -129101.54   -1815.2683    75.770722    78.642132    77.324867    2.7498154            0            0
Averages over the last 5001 of 10001 rows, steps 11050000 to 16050000:
Temp E_pair E_mol TotEng Press Lx Ly Lz Fmax
299.994 -129835 0 -129117 -1784.61 75.7707 78.6421 77.3249 2.99939
Loop time of 40136.1 on 160 procs for 10000000 steps with 18522 atoms

# Final Commands
variable        final_energy equal etotal
ERROR on proc 0: Substitution for illegal variable 'final_energy' (../input.cpp:553)
