# CIF file generated by supercell program. See https://orex.github.io/supercell
# E_e = -382.0840162539 eV
data_
_chemical_name_common ''
_cell_length_a 10.4037
_cell_length_b 10.4037
_cell_length_c 10.4037
_cell_angle_alpha 90
_cell_angle_beta 90
_cell_angle_gamma 90
_space_group_IT_number 1
_space_group_name_H-M_alt 'P 1'
_space_group_name_Hall 'P 1'
loop_
    _space_group_symop_operation_xyz
    x,y,z
loop_ 
    _atom_type_symbol
    _atom_type_oxidation_number
    Cl1     -1
    Li1     +1
    Li2     +1
    Li3     +1
    Li4     +1
    Sc1     +3
loop_
    _atom_site_label
    _atom_site_type_symbol
    _atom_site_fract_x
    _atom_site_fract_y
    _atom_site_fract_z
    _atom_site_occupancy
    Cl1     Cl   0.25435   0.25435   0.25435   1.000
    Cl1     Cl   0.74565   0.50435   0.50435   1.000
    Cl1     Cl   0.49565   0.99565   0.75435   1.000
    Cl1     Cl   0.00435   0.74565   0.00435   1.000
    Cl1     Cl   0.25435   0.99565   0.99565   1.000
    Cl1     Cl   0.74565   0.74565   0.74565   1.000
    Cl1     Cl   0.49565   0.25435   0.49565   1.000
    Cl1     Cl   0.00435   0.50435   0.24565   1.000
    Cl1     Cl   0.50435   0.74565   0.50435   1.000
    Cl1     Cl   0.75435   0.49565   0.99565   1.000
    Cl1     Cl   0.00435   0.00435   0.74565   1.000
    Cl1     Cl   0.99565   0.25435   0.99565   1.000
    Cl1     Cl   0.49565   0.49565   0.25435   1.000
    Cl1     Cl   0.24565   0.00435   0.50435   1.000
    Cl1     Cl   0.25435   0.75435   0.75435   1.000
    Cl1     Cl   0.50435   0.00435   0.24565   1.000
    Cl1     Cl   0.74565   0.24565   0.24565   1.000
    Cl1     Cl   0.99565   0.49565   0.75435   1.000
    Cl1     Cl   0.25435   0.49565   0.49565   1.000
    Cl1     Cl   0.74565   0.00435   0.00435   1.000
    Cl1     Cl   0.24565   0.50435   0.00435   1.000
    Cl1     Cl   0.99565   0.99565   0.25435   1.000
    Cl1     Cl   0.50435   0.50435   0.74565   1.000
    Cl1     Cl   0.75435   0.99565   0.49565   1.000
    Cl1     Cl   0.00435   0.24565   0.50435   1.000
    Cl1     Cl   0.49565   0.75435   0.99565   1.000
    Cl1     Cl   0.50435   0.24565   0.00435   1.000
    Cl1     Cl   0.99565   0.75435   0.49565   1.000
    Cl1     Cl   0.75435   0.25435   0.75435   1.000
    Cl1     Cl   0.24565   0.74565   0.24565   1.000
    Cl1     Cl   0.75435   0.75435   0.25435   1.000
    Cl1     Cl   0.24565   0.24565   0.74565   1.000
    Li1     Li   0.37500   0.37500   0.87500   1.000
    Li2     Li   0.75000   0.75000   0.00000   1.000
    Li2     Li   0.25000   0.75000   0.50000   1.000
    Li2     Li   0.00000   0.75000   0.75000   1.000
    Li2     Li   0.75000   0.50000   0.25000   1.000
    Li3     Li   0.62500   0.36400   0.62500   1.000
    Li4     Li   0.50000   0.50000   0.50000   1.000
    Sc1     Sc   0.50000   0.75000   0.75000   1.000
    Li4     Li   0.25000   0.75000   0.00000   1.000
    Sc1     Sc   0.25000   0.50000   0.25000   1.000
    Li4     Li   0.75000   0.50000   0.75000   1.000
    Sc1     Sc   0.00000   0.25000   0.75000   1.000
    Sc1     Sc   0.25000   0.25000   0.50000   1.000
    Li4     Li   0.50000   0.00000   0.00000   1.000
    Li4     Li   0.75000   0.25000   0.00000   1.000
    Li4     Li   0.50000   0.25000   0.25000   1.000
    Li4     Li   0.00000   0.75000   0.25000   1.000
    Li4     Li   0.75000   0.75000   0.50000   1.000
    Li4     Li   0.25000   0.00000   0.75000   1.000
    Li4     Li   0.75000   0.00000   0.25000   1.000
    Sc1     Sc   0.00000   0.50000   0.00000   1.000
    Li4     Li   0.00000   0.00000   0.50000   1.000
